   12
 SCF done       0.02396223
N          2.320732718344    0.768078823003    0.563709791522
B          2.907298495146   -0.398047709189    0.125951198327
N          0.057451152877   -1.753882266155   -0.721375770306
B         -0.813072578221   -1.668608382068    0.340497628502
H         -0.165392121666   -2.195384610965   -1.598088938107
H          3.095343355477   -1.264568608987    0.891432966363
H          3.225978406938   -0.483972055040   -1.001215850956
H          2.127656013699    1.559006409111   -0.028158270064
H          2.018680048764    0.917244711449    1.511995755603
H          1.000178341158   -1.398089131470   -0.692202826530
H         -0.455980701058   -1.137742270497    1.322271626645
H         -1.889926332360   -2.119376349193    0.235848155200
