   12
 SCF done       0.00000000
N          2.020790796031    0.456575950136    0.513008333163
B          3.199529663517    0.398322595627   -0.196385124175
N          0.238419543721   -2.285267626253    0.030059261816
B         -0.981802424147   -1.650799734937   -0.011362380086
H          1.115264294729   -1.798542468868    0.131855696675
H          4.207297156988    0.273491521893    0.386432998307
H          3.164465007746    0.480157685437   -1.363250582273
H          1.116042109862    0.581943781830    0.089259908410
H          1.972914007898    0.416371395224    1.517562360502
H          0.349469022940   -3.280922360327   -0.062141624864
H         -1.953158520026   -2.284032331511   -0.168001962629
H         -1.023859715959   -0.482963948652    0.081799133353
   12
 SCF done       0.00256445
N          2.006919227130    0.454936282991    0.516610280672
B          3.183680836392    0.400334035199   -0.199195267354
N          0.249518459020   -2.292085887629    0.034603741278
B         -0.961345389134   -1.639924718900   -0.030862106250
H          1.130921490504   -1.813745243009    0.138781932483
H          4.194491576331    0.253190698176    0.377759648556
H          3.143524302376    0.494150382917   -1.367855419489
H          1.101053330767    0.590381557889    0.098727274671
H          1.964330359439    0.399497985340    1.521039861749
H          0.346577028605   -3.290586805696   -0.040608553378
H         -1.945749768895   -2.263096475247   -0.164935434542
H         -0.988550509035   -0.468717352531    0.064770059903
   12
 SCF done       0.03877033
N          1.972733766533    0.449607649344    0.538202202489
B          3.130971500569    0.370067166205   -0.204794156512
N          0.289579397987   -2.276667633407    0.044250842565
B         -0.914115807788   -1.611995979963   -0.042446329081
H          1.183605835547   -1.813589588532    0.112485505954
H          4.147332167731    0.167196270579    0.346641665075
H          3.069975495324    0.503113849927   -1.369330579620
H          1.063054370609    0.624552231243    0.142876406811
H          1.939405719478    0.357882259265    1.540376439570
H          0.373722563581   -3.279542817143    0.020157219410
H         -1.905082734609   -2.229065111051   -0.155370782639
H         -0.925811331363   -0.437223836866   -0.024212415822
   12
 SCF done       0.17250111
N          1.944512784299    0.460970130463    0.571369066941
B          3.073945770048    0.352881211567   -0.211124375996
N          0.326485593914   -2.277266531743    0.058838464693
B         -0.860980403343   -1.591851389046   -0.080586183415
H          1.232118054429   -1.832034893580    0.091226278702
H          4.089418225731    0.053065691538    0.295401407032
H          2.985726172170    0.543669792260   -1.366558698987
H          1.035014913951    0.698713805007    0.210956297305
H          1.927515442260    0.306418355404    1.565640621196
H          0.386366264217   -3.280851677705    0.112654193472
H         -1.868473747802   -2.189724303656   -0.142455255367
H         -0.846278126475   -0.419655731008   -0.156525797276
   12
 SCF done       0.44958142
N          1.928334722994    0.490509215538    0.625143303635
B          3.010469916919    0.329149326688   -0.214639689331
N          0.362019155126   -2.280400936666    0.066231000329
B         -0.811437515012   -1.591976908007   -0.150973610707
H          1.275466781515   -1.852707872432    0.040059417393
H          4.010189010643   -0.101945156457    0.222657575851
H          2.899620269807    0.609313059649   -1.349318179194
H          1.034166259301    0.832326106581    0.318342339610
H          1.926223417958    0.263927655228    1.604175222836
H          0.397523495378   -3.270479526528    0.246418752827
H         -1.837315085158   -2.166812094923   -0.113143337045
H         -0.769889485969   -0.436568408869   -0.346116778005
   12
 SCF done       0.82059370
N          1.888148673891    0.513272328334    0.680949517346
B          2.913259937657    0.313386813694   -0.218385451553
N          0.412997618704   -2.293733131638    0.084554217915
B         -0.721151972786   -1.568895466681   -0.204733098515
H          1.347720786045   -1.923905176370   -0.000041272620
H          3.879384049299   -0.248260058606    0.136208072561
H          2.782147003958    0.669736772152   -1.328245307708
H          1.014088399696    0.945432635395    0.438033219893
H          1.900249114883    0.209998132368    1.637762233809
H          0.392739089512   -3.256868442273    0.379559048603
H         -1.776105065596   -2.077901698076   -0.104332807834
H         -0.608106691763   -0.457928248599   -0.552492353597
   12
 SCF done       1.42814845
N          1.832486330258    0.514086319950    0.725627516778
B          2.799222177341    0.286268614093   -0.228521676982
N          0.470205126329   -2.303090530970    0.107228848013
B         -0.608708502601   -1.530370887953   -0.254814812193
H          1.428222834582   -2.009468642399   -0.012927733475
H          3.740457548914   -0.348938711261    0.058356415897
H          2.655847098986    0.713947321914   -1.309291314568
H          0.979746328118    1.014563004049    0.541736689269
H          1.856106127433    0.149815375199    1.659261900056
H          0.380949812116   -3.234327591496    0.487281917939
H         -1.696032820107   -1.948900710185   -0.109025289427
H         -0.413131117769   -0.479249101241   -0.716076443007
   12
 SCF done       2.27980020
N          1.782473540487    0.509071822184    0.764667232488
B          2.693448657945    0.260323912786   -0.237474448632
N          0.521384559863   -2.307337837857    0.129887633721
B         -0.501129210628   -1.492298972412   -0.292726906813
H          1.498453068365   -2.088041087968   -0.006507269595
H          3.614580465158   -0.419930824020   -0.008214929731
H          2.535744980155    0.743368040860   -1.293567237462
H          0.947448723884    1.060026791119    0.630417433462
H          1.814958046791    0.097215532405    1.677534986738
H          0.364954576512   -3.205630868533    0.566684977119
H         -1.613160800568   -1.824065657050   -0.126865158064
H         -0.233785664565   -0.508366391914   -0.855000294932
   12
 SCF done       3.08577538
N          1.756726838613    0.516400804977    0.797542378406
B          2.615464143666    0.253100588199   -0.243046935974
N          0.544818458602   -2.315900639120    0.164035029871
B         -0.420931029893   -1.477867812322   -0.347063585537
H          1.536831188451   -2.169744071906    0.016366108457
H          3.514585334395   -0.476675142982   -0.069977341328
H          2.450214342282    0.793751621647   -1.269404250263
H          0.939884650728    1.104628721560    0.696987260075
H          1.790171142676    0.060593870741    1.692134242206
H          0.332822399623   -3.185868503384    0.632451404512
H         -1.546729130049   -1.715503361875   -0.139825719684
H         -0.088487395694   -0.562581615835   -0.981362572440
   12
 SCF done       4.14303367
N          1.711174682318    0.500655750911    0.815859772778
B          2.546810360006    0.274698079910   -0.255992025956
N          0.571661100028   -2.335856557546    0.195176981292
B         -0.315569334386   -1.449475960958   -0.377916388294
H          1.573402562208   -2.298712804461    0.040224535080
H          3.386502122836   -0.530300671069   -0.164846014970
H          2.413403821460    0.917273252444   -1.226774462026
H          0.920942773756    1.129677073281    0.765803435082
H          1.708283897683   -0.049295095403    1.651722124777
H          0.276191403455   -3.121965995916    0.767494473228
H         -1.452353652807   -1.551986591225   -0.130649700367
H          0.084921206944   -0.660376020168   -1.131266712124
   12
 SCF done       4.71890246
N          1.666848612406    0.502317732679    0.819442540430
B          2.482274569763    0.305513734575   -0.279081110809
N          0.575300998431   -2.368679215225    0.252020483568
B         -0.215892872616   -1.463798617872   -0.409632709246
H          1.568397129938   -2.464528717067    0.076111123007
H          3.270022336981   -0.556907531769   -0.264342694697
H          2.382121386469    1.035013671411   -1.184514970598
H          0.944619955928    1.195882236835    0.843012327908
H          1.638235096654   -0.111942396326    1.613132132515
H          0.194002734672   -3.083571763234    0.853446416911
H         -1.351098787713   -1.384980512548   -0.149280637340
H          0.270539782587   -0.779984161659   -1.221476883448
   12
 SCF done       6.73158714
N          1.635383127943    0.488903030867    0.834082190681
B          2.414796934132    0.310170744588   -0.298329115791
N          0.586085874255   -2.374056082073    0.302766226377
B         -0.100335374990   -1.414031973822   -0.421724097655
H          1.563919215288   -2.580357929508    0.132397154401
H          3.166590028323   -0.587715039167   -0.341275600786
H          2.335376438359    1.096374582018   -1.172366850447
H          0.913201526203    1.196555319560    0.890421737501
H          1.594951224262   -0.172816820399    1.593744072635
H          0.103340117280   -3.074967586124    0.857400621750
H         -1.216818007969   -1.193418162098   -0.135966269908
H          0.428879840415   -0.870305624043   -1.292314050359
   12
 SCF done       7.80703439
N          1.574182155552    0.459824278042    0.845325147286
B          2.337705957263    0.306622287400   -0.298891308506
N          0.599380462831   -2.415300154439    0.255230541429
B          0.011491676650   -1.383459824041   -0.465461424328
H          1.575749225821   -2.674464227346    0.151844432443
H          3.055017473569   -0.629241772441   -0.391620905404
H          2.269245486762    1.115026239998   -1.150420413279
H          0.884568483787    1.185982921947    0.943112309912
H          1.526523031316   -0.227044647602    1.576432657838
H          0.081111824874   -2.960111600678    0.985477170683
H         -1.070020631199   -1.055825020881   -0.152292412483
H          0.580415795973   -0.897674020059   -1.349899777189
   12
 SCF done       8.53794248
N          1.546512876224    0.456462711641    0.822807456448
B          2.308805218428    0.286068491237   -0.319598935590
N          0.595501381351   -2.415027986115    0.283075750596
B          0.042890828145   -1.388373707401   -0.463731351195
H          1.569975240643   -2.698576601173    0.188893347770
H          3.050956011118   -0.609608348685   -0.381792374710
H          2.279884085114    1.131343075826   -1.138926828341
H          0.886637137981    1.196530326451    0.935515351733
H          1.510417536403   -0.218521574010    1.572148398088
H          0.051507334961   -2.947232238107    0.987111048949
H         -1.030346759868   -1.021796101657   -0.172288576937
H          0.612630052901   -0.946933588207   -1.364377268512
   12
 SCF done      11.41979814
N          1.511606329782    0.422852792755    0.816426773015
B          2.291963595610    0.274619689387   -0.325365133834
N          0.628341183349   -2.353152855123    0.358175008363
B          0.110648908451   -1.324162605118   -0.398756996926
H          1.580857781571   -2.689415780284    0.231560614225
H          3.062441783497   -0.612454067576   -0.375974713295
H          2.236813731828    1.103336545134   -1.172077530643
H          0.817956265903    1.156575339993    0.921403816483
H          1.513224603401   -0.230874830210    1.574258324608
H          0.004602889120   -3.018365544231    0.846281910890
H         -0.982190801043   -0.942225054010   -0.147589657588
H          0.649104671832   -0.962399170918   -1.379506396999
   12
 SCF done      13.88746073
N          1.405787477723    0.348786194837    0.796547921357
B          2.236584367246    0.244613043867   -0.335286213241
N          0.663382983543   -2.354680009962    0.347487743057
B          0.212482208299   -1.228176447684   -0.363013398602
H          1.595018886971   -2.745607207828    0.186934571069
H          3.036340637851   -0.625018326702   -0.392109543242
H          2.188736330160    1.101178617490   -1.152672538490
H          0.763266567537    1.108582640755    0.913383741162
H          1.482739995796   -0.240529447082    1.617416751527
H          0.012423796044   -2.990097769446    0.826771304702
H         -0.881945555497   -0.839789236986   -0.106464132562
H          0.710553247626   -0.954927591559   -1.390160188537
   12
 SCF done      12.98961340
N          1.401418028428    0.342967399360    0.800116793428
B          2.239392411541    0.245121941138   -0.320861184752
N          0.642711843083   -2.403810240358    0.265688322861
B          0.200201656477   -1.259010394122   -0.428716764675
H          1.594817526392   -2.757111109551    0.178293071910
H          3.032179687293   -0.615368929286   -0.376388260415
H          2.210218470133    1.121924526232   -1.123754323341
H          0.744209083600    1.101215869836    0.918355550736
H          1.459432466487   -0.265638565661    1.594892740368
H          0.023185544832   -2.899508110175    0.973190260259
H         -0.853198562797   -0.850782298170   -0.136511970037
H          0.730802787831   -0.935665629341   -1.395468218043
   12
 SCF done      16.27519404
N          1.322303659284    0.279942426868    0.764133070603
B          2.167862075787    0.194983023181   -0.376371122290
N          0.681412221228   -2.343638009172    0.361121717432
B          0.278651909064   -1.166774639650   -0.327079318826
H          1.628474638594   -2.728506621276    0.270880814819
H          3.005616634468   -0.634481620190   -0.397623184843
H          2.160994561695    1.085685823771   -1.153069872931
H          0.733547014451    1.078338065146    0.918775471019
H          1.475749873893   -0.254834400115    1.599613296796
H          0.007139228606   -2.981319757991    0.790414800089
H         -0.812664174707   -0.779703726339   -0.117769181155
H          0.776283300836   -0.925356104533   -1.384190472512
   12
 SCF done      16.15832779
N          1.246660941434    0.193651804591    0.739092341268
B          2.108668680997    0.143990770970   -0.435990214023
N          0.693515711000   -2.314283479784    0.453706789057
B          0.376983622648   -1.062632982887   -0.197137983085
H          1.613728342148   -2.736432733153    0.315900315230
H          3.004279333922   -0.638320292094   -0.422866797242
H          2.133425201675    1.085123103893   -1.159662676409
H          0.651420290085    1.002163755806    0.887148167317
H          1.494382372047   -0.248648900821    1.616986773365
H         -0.014376682848   -3.015978336975    0.602204796722
H         -0.765159819840   -0.718224016781   -0.138109108750
H          0.881842950132   -0.866074232965   -1.312436384949
   12
 SCF done      13.34906093
N          1.189103052263    0.142660695592    0.733013329914
B          2.047261051420    0.092706778806   -0.505671901471
N          0.685289286780   -2.304084947717    0.501670465893
B          0.401088276435   -1.009187022881   -0.091560138273
H          1.618699884788   -2.684508533771    0.406340809389
H          2.986284070124   -0.642888664609   -0.441997282600
H          2.088846679601    1.056570019733   -1.176425405425
H          0.626018670831    0.982881416048    0.880346407559
H          1.523824292256   -0.206583124858    1.639649345868
H          0.019221012924   -3.062325840575    0.429877602862
H         -0.755567593975   -0.727632089248   -0.202398094252
H          0.995302259752   -0.813274226621   -1.224009121265
   12
 SCF done       8.50999376
N          1.138357809061    0.105195480768    0.732664227673
B          1.955561458986    0.017708351982   -0.610407338029
N          0.660749661174   -2.334221023675    0.508250438632
B          0.317873148828   -1.016908722130    0.035947970008
H          1.625771875321   -2.605174197055    0.628715525672
H          2.928519823575   -0.675585426373   -0.467971158102
H          2.137149012336    1.089101863644   -1.116404539490
H          0.657406566005    0.977309542560    0.871249649494
H          1.596472297226   -0.119704047406    1.605732028583
H          0.094942788864   -3.153983283517    0.284767490810
H         -0.799704859287   -0.811099113543   -0.277243531064
H          1.112271361211   -0.648304965554   -1.246464745687
   12
 SCF done       3.79173231
N          1.122859840293    0.073435562745    0.737006319729
B          1.928110081584    0.002256388541   -0.658669238263
N          0.629461223532   -2.348744315262    0.534456540197
B          0.295257712823   -1.030195144699    0.137052838140
H          1.591831734417   -2.581455924164    0.715672638876
H          2.925711766810   -0.639634783055   -0.506011174209
H          2.104627594947    1.101021346719   -1.083702661389
H          0.663874896953    0.962656253572    0.865470935832
H          1.646768174156   -0.120584102643    1.582111630054
H          0.106231146475   -3.160268577978    0.204795241540
H         -0.783976832599   -0.780533484834   -0.254843995475
H          1.194613603808   -0.653618759042   -1.324503056431
   12
 SCF done      -0.40702350
N          1.097997495418    0.031843139953    0.688056055506
B          1.963826119061    0.033351243568   -0.702725521072
N          0.628502401971   -2.380092037857    0.536634455571
B          0.220605993188   -1.086942834359    0.276345490061
H          1.581036624020   -2.572756309255    0.795358103750
H          2.915857166719   -0.670889288005   -0.514734713248
H          2.241270651051    1.150254515824   -0.968126550945
H          0.613997086206    0.932963816242    0.779715940393
H          1.676866687239   -0.118825130314    1.513134538638
H          0.123929736382   -3.197464092208    0.232476026808
H         -0.867961963565   -0.852037763225   -0.135773515849
H          1.229442945511   -0.445070800564   -1.551524291312
   12
 SCF done      -3.20196507
N          1.061572733344    0.008079135888    0.650842025685
B          1.978272026791    0.072498182596   -0.735939244169
N          0.623828893731   -2.407023671720    0.583314981454
B          0.175180116994   -1.128191793856    0.334206713159
H          1.574271473201   -2.583821449842    0.868351714020
H          2.860776199992   -0.717467963024   -0.588522053631
H          2.364503914992    1.184348038815   -0.853765562068
H          0.592145510271    0.903293023974    0.732492213444
H          1.690788300199   -0.113196777084    1.435179645672
H          0.141166357058   -3.231968750159    0.278265842911
H         -0.885503171710   -0.913222507647   -0.107763838339
H          1.248368588534   -0.248991007943   -1.647826419840
   12
 SCF done      -4.21991420
N          1.037218898376   -0.009044861811    0.612498999441
B          1.986800959828    0.100618222601   -0.773873124076
N          0.624167372274   -2.425148617281    0.622712924806
B          0.151399328268   -1.158159040133    0.360004938664
H          1.581381898537   -2.593655763188    0.886856364111
H          2.818365104196   -0.747739955852   -0.658376275845
H          2.450394867683    1.195475505627   -0.740617562279
H          0.568759061513    0.881213922300    0.682671000906
H          1.700477432874   -0.099887274460    1.370539587429
H          0.135980078045   -3.263993072630    0.364159655142
H         -0.919923489973   -0.971709580441   -0.059021978061
H          1.290349431680   -0.083635024934   -1.718718511938
   12
 SCF done      -4.53265810
N          1.026481864569   -0.015295452536    0.594537836578
B          2.006823722902    0.116186839346   -0.775361103025
N          0.619629431638   -2.433292446219    0.631708092586
B          0.140917089432   -1.166083991627    0.369891942869
H          1.583718588723   -2.601457751256    0.878453906659
H          2.814433319400   -0.754936348144   -0.678572829755
H          2.498224584923    1.190671556324   -0.724338128474
H          0.556174312064    0.874027764952    0.652145492644
H          1.699114887872   -0.094019609498    1.349035006250
H          0.122994447476   -3.277118106952    0.401668119416
H         -0.943963214913   -0.999592570309   -0.029578945293
H          1.300821909214   -0.014755424081   -1.720753372156
   12
 SCF done      -4.60307393
N          1.009951573833   -0.016583336763    0.574253920493
B          2.024408859169    0.124823894211   -0.775024476124
N          0.630084276238   -2.442551109758    0.627437320856
B          0.130596882091   -1.181888791848    0.382280392491
H          1.603392915478   -2.596460436950    0.835809675465
H          2.794580606838   -0.783976724688   -0.707009730605
H          2.555073729874    1.188303735049   -0.664981276863
H          0.519527723087    0.865989605359    0.613728070232
H          1.673516335960   -0.071822350500    1.333670656722
H          0.125318419651   -3.291138271318    0.436646462484
H         -0.972169990750   -1.022012745168    0.029664397316
H          1.331089611930    0.051650992173   -1.737639394366
   12
 SCF done      -4.65093413
N          1.010988166776   -0.017284735589    0.567940065126
B          2.019909655925    0.121803784136   -0.781479222948
N          0.631945586004   -2.439567699355    0.637290302223
B          0.129724658126   -1.183096901167    0.378088139645
H          1.602638571392   -2.593768982894    0.856708880931
H          2.784280175765   -0.790441052731   -0.717463880180
H          2.562270924814    1.175669367400   -0.648674553895
H          0.528469543162    0.869280771437    0.613709266306
H          1.672709993207   -0.080792057797    1.329231791829
H          0.130620809338   -3.289307168132    0.444196384209
H         -0.968582924042   -1.024147488846    0.012330729190
H          1.320395782833    0.075986623338   -1.743041884237
   12
 SCF done      -4.60807164
N          1.019511401132   -0.014632139104    0.570482102767
B          2.023871453210    0.117761736104   -0.782427346638
N          0.627172983886   -2.438914331360    0.636408370386
B          0.136198839545   -1.177464992178    0.376703033814
H          1.598094840871   -2.608126994583    0.843442833739
H          2.808406160054   -0.776739234519   -0.697047978027
H          2.528657971974    1.196416370651   -0.667165733713
H          0.537612182642    0.872659213412    0.619177385239
H          1.674447291226   -0.084960796113    1.334254489141
H          0.114732624604   -3.279762676229    0.441609020849
H         -0.962368662225   -1.015341366271    0.010773365406
H          1.319033856281    0.033439669990   -1.737373524863
   12
 SCF done      -4.61724371
N          1.017264504485   -0.012975882191    0.571708887221
B          2.022842921731    0.120085785440   -0.782080908605
N          0.629817738943   -2.440901329452    0.635865552662
B          0.138688993035   -1.178178371478    0.379040190767
H          1.599411541217   -2.611321943093    0.847519485973
H          2.797036385472   -0.783688790139   -0.705720933896
H          2.539737434870    1.188580960567   -0.660029111997
H          0.529334917429    0.870326803493    0.615432227843
H          1.675768537392   -0.071737014077    1.337128145585
H          0.119003327562   -3.283639976846    0.434810270774
H         -0.960928272257   -1.018233204716    0.014530959245
H          1.317392913420    0.046017422393   -1.739368747373
   12
 SCF done      -4.63456562
N          1.010794124810   -0.016615527394    0.566968611546
B          2.022112503712    0.123449087259   -0.784811068641
N          0.633709759001   -2.443391097755    0.637232279883
B          0.135552036380   -1.183795510697    0.379465519573
H          1.603544666360   -2.609501268447    0.851580680218
H          2.785790826686   -0.790217980233   -0.724953094195
H          2.561922389996    1.181792793382   -0.642445233899
H          0.524044192705    0.867670184767    0.610279416459
H          1.670893343922   -0.071784363194    1.332494715694
H          0.118558664492   -3.285687884606    0.457876947989
H         -0.965118230079   -1.032898801367    0.012691838765
H          1.323566665216    0.085314828186   -1.747544595191
   12
 SCF done      -4.63313386
N          1.013392803520   -0.014769187840    0.568036698679
B          2.023147930289    0.123680034595   -0.784357026782
N          0.633092445971   -2.440385139305    0.635356819561
B          0.134802006192   -1.181324103591    0.379853491871
H          1.603294447089   -2.609143569947    0.845872679363
H          2.791030157505   -0.786196188125   -0.714354166631
H          2.550400495931    1.183146832083   -0.648410337868
H          0.528916345744    0.871417018967    0.613158833080
H          1.668675934833   -0.076874524462    1.334825622603
H          0.119559089303   -3.283630411284    0.449470646390
H         -0.965328973939   -1.027053691406    0.015680452113
H          1.324388260863    0.065467390114   -1.746297694278
   12
 SCF done      -4.62512431
N          1.014586308546   -0.015103970690    0.570076411212
B          2.024257572217    0.121706852416   -0.782391484635
N          0.629206930184   -2.441012370517    0.637751570176
B          0.134947394672   -1.180863361279    0.380593940876
H          1.598872846689   -2.613251806159    0.848212304442
H          2.800111189331   -0.782535411886   -0.711993345191
H          2.543721928231    1.190842039179   -0.662079966870
H          0.528523874775    0.869870604113    0.616038518887
H          1.673012518188   -0.074624162140    1.335994671212
H          0.117876620955   -3.285236747063    0.442360543610
H         -0.963345582790   -1.019931629954    0.014991363883
H          1.323599342204    0.054474423781   -1.740718509401
   12
 SCF done      -4.63419550
N          1.015139159049   -0.014974278105    0.569098449090
B          2.024311819045    0.123944716245   -0.783952568176
N          0.631057010074   -2.441325049902    0.636337417777
B          0.137162506544   -1.180624096849    0.378377404897
H          1.600191419070   -2.612913035299    0.849719071836
H          2.794379199524   -0.784141558466   -0.714186189536
H          2.548271192328    1.187146160420   -0.654867944227
H          0.527351158500    0.868684034385    0.614684487926
H          1.672301159474   -0.075653016547    1.335274842378
H          0.117178270372   -3.284215182776    0.448440335481
H         -0.962900300981   -1.024293364505    0.012041179604
H          1.320928350201    0.062699131200   -1.742130468948
   12
 SCF done      -4.63628469
N          1.011800303417   -0.014611972419    0.568573386042
B          2.023158467098    0.122430678035   -0.783714841541
N          0.633262467019   -2.440451200061    0.635727165178
B          0.134007020744   -1.181213029263    0.381086441632
H          1.603707894601   -2.608442855141    0.846443577448
H          2.789627877055   -0.788802748820   -0.717580348798
H          2.554462551269    1.182247435584   -0.650116234330
H          0.528059908336    0.872206791426    0.612149002519
H          1.667143810416   -0.074252939803    1.335984633542
H          0.122287402316   -3.285116745084    0.447846125680
H         -0.966058798827   -1.028273933873    0.017471625752
H          1.323912039755    0.068614979221   -1.745034514924
   12
 SCF done      -4.63618264
N          1.013866259485   -0.015251491163    0.568819326218
B          2.024033700098    0.123732742177   -0.784143744906
N          0.631294439482   -2.441301794601    0.636321373287
B          0.135734634493   -1.181334187733    0.379685723124
H          1.600741754885   -2.612275109129    0.848867325378
H          2.794120536895   -0.784494084506   -0.715076427168
H          2.549148743448    1.186162084690   -0.653335205860
H          0.527927102346    0.869866876912    0.614167852912
H          1.671130098968   -0.075166420505    1.335156660381
H          0.118138809479   -3.284614552174    0.448286434100
H         -0.963710249585   -1.025135192503    0.013689772638
H          1.322945113507    0.064145588436   -1.743603071903
   12
 SCF done      -4.63562638
N          1.014316728304   -0.014406189044    0.569621811578
B          2.023929239739    0.123360692746   -0.783685297947
N          0.631791898102   -2.440331868719    0.636812487175
B          0.136118071328   -1.180314917601    0.378771470779
H          1.601399364160   -2.610753975379    0.849592166673
H          2.792039913304   -0.786424485722   -0.716341288091
H          2.551340956759    1.185668376928   -0.655388951860
H          0.526871660733    0.869499350698    0.614803877629
H          1.669950360579   -0.076468808587    1.336377241693
H          0.120501323156   -3.284911077973    0.447424199508
H         -0.964458051620   -1.025064414272    0.013542309187
H          1.321569478656    0.064481776724   -1.742694008124
   12
 SCF done      -4.63630663
N          1.013915769982   -0.014727367268    0.569297760889
B          2.024031320077    0.123339183033   -0.783881336322
N          0.631656341002   -2.440759148723    0.636385837929
B          0.135860302905   -1.180676406428    0.379353182562
H          1.601249574965   -2.611302741587    0.848926002254
H          2.792856884856   -0.785863770861   -0.715687823618
H          2.550513928485    1.185588830002   -0.654303690307
H          0.527460012238    0.869959698999    0.614278808239
H          1.670297743103   -0.075485936591    1.335916548140
H          0.119655639449   -3.284778584576    0.447604193634
H         -0.964164635791   -1.025269096097    0.013894331269
H          1.322038062130    0.064309799897   -1.742947796470
   12
 SCF done      -4.63765854
N          1.013711903296   -0.015328921160    0.569027246827
B          2.023986713628    0.123987939505   -0.784385383521
N          0.631281007155   -2.441244576331    0.636637270571
B          0.135628049598   -1.181421813421    0.379683655353
H          1.600671650545   -2.612080288912    0.849710724475
H          2.793591727484   -0.784567206301   -0.715913533910
H          2.549785801755    1.186087902075   -0.653312591156
H          0.527866020510    0.869818450849    0.614420862151
H          1.670912465197   -0.075665575458    1.335265514030
H          0.118614488068   -3.284833234453    0.448350732111
H         -0.963792626434   -1.025471447177    0.013372890099
H          1.323113742599    0.065053230684   -1.744021368730
   12
 SCF done      -4.63555186
N          1.013623970852   -0.014837140605    0.569232605829
B          2.024192704870    0.123263144808   -0.784029276169
N          0.631554587750   -2.440977541958    0.636088745110
B          0.135689922994   -1.180841488514    0.379696585701
H          1.601171243703   -2.611801794793    0.848210601089
H          2.793552993897   -0.785499756892   -0.715044417509
H          2.549821831312    1.185552154424   -0.653860640466
H          0.527757932869    0.870301085022    0.614023885173
H          1.670529341363   -0.074828295289    1.335718887380
H          0.119147419447   -3.284680648124    0.447645579554
H         -0.964054781694   -1.025173186664    0.014191794671
H          1.322383775937    0.063857928584   -1.743038332163
   12
 SCF done      -4.63739870
N          1.013817200841   -0.015046145126    0.569316408142
B          2.024092818216    0.123618068036   -0.784180114188
N          0.631410226317   -2.440982306825    0.636523104208
B          0.135789510117   -1.180922425653    0.379517435307
H          1.600868230762   -2.611551656252    0.849586729631
H          2.793228945002   -0.785274125886   -0.715828628494
H          2.550117466095    1.185863355575   -0.653996829028
H          0.527684282404    0.869856777835    0.614399544191
H          1.670743381502   -0.075570840060    1.335612425199
H          0.119189932411   -3.284786403393    0.447761251999
H         -0.963864369371   -1.025382426256    0.013417078490
H          1.322293318904    0.064512587706   -1.743292387259
   12
 SCF done      -4.63676345
N          1.013648394386   -0.015002818597    0.569252098726
B          2.024071144616    0.123653093945   -0.784221354348
N          0.631474076506   -2.441058089541    0.636449111563
B          0.135681727298   -1.181099493219    0.379623477298
H          1.600993752928   -2.611886593535    0.849018421450
H          2.793341918771   -0.785154117309   -0.715642615455
H          2.550053421920    1.185792581504   -0.653755943017
H          0.527712702709    0.870060401088    0.614302792826
H          1.670570120263   -0.075413821371    1.335616634081
H          0.119093208257   -3.284822630625    0.447972877903
H         -0.964032907867   -1.025347161307    0.013806424498
H          1.322763383713    0.064613108768   -1.743585907325
   12
 SCF done      -4.63670240
N          1.013649961838   -0.015018833943    0.569297116504
B          2.024167488413    0.123482327479   -0.784191248534
N          0.631436384344   -2.441002705643    0.636347491678
B          0.135672517212   -1.180947958553    0.379658481881
H          1.600961428708   -2.611704211844    0.848976745173
H          2.793497170695   -0.785269225792   -0.715464754883
H          2.549867102810    1.185728001370   -0.653804220942
H          0.527757368434    0.870070587623    0.614253873784
H          1.670741992333   -0.075223702934    1.335570993264
H          0.119080332215   -3.284719295903    0.447765388482
H         -0.963930738917   -1.025282493670    0.013713473656
H          1.322469935314    0.064221971711   -1.743287321865
   12
 SCF done      -4.63739618
N          1.013672719025   -0.015071981682    0.569467045213
B          2.023949218784    0.123684686401   -0.784284134729
N          0.631418794404   -2.441075003840    0.636551344489
B          0.135758958878   -1.181037860396    0.379580198252
H          1.600874242842   -2.611794148811    0.849497628039
H          2.793050031614   -0.785226881842   -0.715773585123
H          2.550130766997    1.185714956680   -0.653918502089
H          0.527776352602    0.870001127969    0.614446225021
H          1.670718017897   -0.075396675971    1.335730385046
H          0.119120661377   -3.284820764538    0.447844126913
H         -0.963826242484   -1.025353368419    0.013438825942
H          1.322727421365    0.064710374349   -1.743743538774
   12
 SCF done      -4.63681583
N          1.013617478735   -0.015011684763    0.569311746226
B          2.024221326388    0.123557834358   -0.784226791558
N          0.631409212832   -2.441036602793    0.636444414703
B          0.135671788872   -1.181000646439    0.379630183995
H          1.600932633459   -2.611763406711    0.849072304499
H          2.793497073159   -0.785228494205   -0.715640014739
H          2.550002290113    1.185797089083   -0.653829181986
H          0.527717267482    0.870061728414    0.614268262852
H          1.670668985611   -0.075316090467    1.335561229679
H          0.119064307126   -3.284785055262    0.447854256391
H         -0.964015084316   -1.025329694610    0.013748979876
H          1.322583663838    0.064389483094   -1.743359371639
   12
 SCF done      -4.63684936
N          1.013666100404   -0.015009852482    0.569371021160
B          2.024100147189    0.123538481536   -0.784282494751
N          0.631444594075   -2.441011826328    0.636391354430
B          0.135696291264   -1.180966952624    0.379676048403
H          1.600951853273   -2.611738892655    0.849071625771
H          2.793327265720   -0.785246708472   -0.715383400350
H          2.549917130460    1.185739039134   -0.653861896739
H          0.527779771003    0.870071978648    0.614312322193
H          1.670743335116   -0.075323672592    1.335616151531
H          0.119108352677   -3.284743666063    0.447750425793
H         -0.963925595201   -1.025279278128    0.013671117476
H          1.322561697421    0.064305809827   -1.743496256716
   12
 SCF done      -4.63692186
N          1.013623539609   -0.015009047005    0.569382819856
B          2.024140451369    0.123548607631   -0.784226782775
N          0.631429755009   -2.441021843855    0.636430552145
B          0.135691628209   -1.180985464793    0.379639685069
H          1.600930233513   -2.611748552378    0.849157238435
H          2.793400539116   -0.785241569054   -0.715630012587
H          2.550000976135    1.185736994573   -0.653886983249
H          0.527728496847    0.870066390481    0.614324073670
H          1.670700714231   -0.075326356261    1.335622756619
H          0.119101057687   -3.284760998250    0.447794217905
H         -0.963929153655   -1.025310975095    0.013624173355
H          1.322552705230    0.064387273707   -1.743395720543
