   12
 SCF done       0.00000000
N          2.020999790886    0.457049903842    0.513557983920
B          3.200373768828    0.402550093704   -0.195549474645
N          0.238998875258   -2.285287304441    0.028892322647
B         -0.980900461097   -1.650259496901   -0.019228890698
H          1.116227458803   -1.799736963601    0.133839580944
H          4.208101437495    0.273736621489    0.387219447803
H          3.164948683977    0.479474033021   -1.363244426932
H          1.116237311160    0.581142864081    0.089479263726
H          1.972830712311    0.416073645454    1.518104261041
H          0.349660301303   -3.281287410305   -0.060133014533
H         -1.953649099329   -2.284911570407   -0.165154713148
H         -1.024433144896   -0.482856243935    0.084962679676
   12
 SCF done       0.04386351
N          2.001878775188    0.454290138854    0.518690862020
B          3.177112426409    0.402540529917   -0.199790203146
N          0.254125667131   -2.294117641296    0.036818392617
B         -0.951986250556   -1.635084161035   -0.040212284038
H          1.138521147361   -1.821790042823    0.142604492582
H          4.188609460148    0.246072789372    0.373517935324
H          3.134499415176    0.501330257332   -1.367968000616
H          1.095335351370    0.592148181967    0.103104701286
H          1.961003215476    0.391575523447    1.522837734504
H          0.345042030664   -3.294109173854   -0.029707852330
H         -1.940899324609   -2.253719075942   -0.163606701637
H         -0.973846278858   -0.463449153839    0.056455943336
   12
 SCF done       0.21544581
N          1.950747903861    0.450297562864    0.549960749472
B          3.095306968872    0.370041425984   -0.211712168612
N          0.308330255623   -2.288779735887    0.061760419998
B         -0.873274658236   -1.591105652034   -0.061398990406
H          1.216505712631   -1.852343463585    0.121632769251
H          4.112005001122    0.120293473582    0.317627183521
H          3.022268615035    0.545162136431   -1.368564158134
H          1.038415702000    0.649996060606    0.172620011564
H          1.925150698441    0.317030526312    1.547665638197
H          0.362230781906   -3.294606838538    0.072180194195
H         -1.879323667453   -2.181953393105   -0.158623450527
H         -0.848967679201   -0.418343930629   -0.090403178620
   12
 SCF done       0.60230127
N          1.930595005480    0.475897271794    0.598656663635
B          3.034540137004    0.351876043355   -0.217855720131
N          0.343523298835   -2.298661094260    0.078056095442
B         -0.817879143637   -1.584647791832   -0.127540782295
H          1.264683642379   -1.885098357291    0.081692550926
H          4.044393723521   -0.029142677168    0.246033827339
H          2.933819418017    0.628119900216   -1.355611181427
H          1.028573681447    0.783235245148    0.272564410458
H          1.918158089168    0.251272610911    1.579581894475
H          0.364563493172   -3.299415042212    0.210722436096
H         -1.850577239932   -2.145001253027   -0.125606849957
H         -0.764998470653   -0.422746683634   -0.287948324660
   12
 SCF done       0.98568988
N          1.896638082834    0.505099499326    0.653159609689
B          2.948438827566    0.340803276196   -0.225457728515
N          0.384459703694   -2.319059565306    0.102674822340
B         -0.735086481010   -1.570846876831   -0.193076888195
H          1.326413478664   -1.961676798215    0.042709684898
H          3.930863904676   -0.179365009615    0.154503252784
H          2.835499678802    0.722501120034   -1.331289016384
H          1.014285732264    0.911751097761    0.393167844891
H          1.892339908870    0.181362306814    1.604803129565
H          0.347013131147   -3.295716278881    0.364222756983
H         -1.801809031150   -2.060624391669   -0.104578020884
H         -0.609661301656   -0.448540207613   -0.508094427472
   12
 SCF done       1.52440523
N          1.843918503619    0.516438932308    0.701521120530
B          2.842706832779    0.331763451844   -0.233698237786
N          0.434385320084   -2.337679494933    0.131757345338
B         -0.622920641141   -1.541542412399   -0.248751211823
H          1.399510290085   -2.066562400055    0.019165402101
H          3.785468488177   -0.300857504284    0.058693039911
H          2.725644801697    0.802934022447   -1.303590125436
H          0.987404988183    1.003457276400    0.507688005239
H          1.840065804760    0.105939071864    1.617509938457
H          0.319918340160   -3.273168545015    0.501106367442
H         -1.724847595804   -1.926467591177   -0.099806042360
H         -0.401859497799   -0.488566634899   -0.698850581714
   12
 SCF done       2.43463929
N          1.783077016473    0.509360234124    0.739753901715
B          2.727860628426    0.313139072689   -0.246356593437
N          0.487676397663   -2.346412588259    0.166253809591
B         -0.497720863471   -1.499191067290   -0.283982513500
H          1.473169950835   -2.168744633796    0.029958959168
H          3.635961615586   -0.392106997435   -0.030806414498
H          2.611712170582    0.866831141809   -1.273847134229
H          0.952432168706    1.065595272136    0.607149574178
H          1.777452032199    0.029469040486    1.621235639643
H          0.292966827761   -3.241210673526    0.596352266700
H         -1.625511723476   -1.774018321309   -0.111384423774
H         -0.189680586584   -0.537022307729   -0.861582051755
   12
 SCF done       4.05361559
N          1.733771901419    0.497550255904    0.765639552082
B          2.634965588449    0.299809407342   -0.252640552839
N          0.522050470835   -2.355058914826    0.195653374514
B         -0.394995392002   -1.473475745835   -0.338462239496
H          1.524024511301   -2.254119642734    0.066985543073
H          3.509663421015   -0.462356910604   -0.107616540788
H          2.520645015688    0.924480869997   -1.240988117622
H          0.933285907732    1.106036451743    0.674099731631
H          1.727440166902   -0.021287220347    1.625586484448
H          0.260932198313   -3.213118973767    0.675804653920
H         -1.531733467562   -1.638056745920   -0.123551012844
H         -0.010654687391   -0.584714658852   -0.987765856178
   12
 SCF done       8.18074621
N          1.657380629776    0.475350119837    0.789051563443
B          2.526269026282    0.296171886615   -0.266140288995
N          0.583672817356   -2.358520136103    0.215362696676
B         -0.252963460085   -1.425583982382   -0.365490595077
H          1.590928527256   -2.356781815359    0.092664001887
H          3.351843750005   -0.522930245855   -0.193448967684
H          2.435718615138    0.996437888694   -1.204970112163
H          0.859486098238    1.088488029464    0.734609082749
H          1.624740988135   -0.126586261679    1.592666545794
H          0.236236564893   -3.158820511835    0.762636699377
H         -1.390820372678   -1.445491746439   -0.109263468074
H          0.206902450183   -0.636045052558   -1.094932138133
   12
 SCF done      11.43000811
N          1.568401759171    0.441013790759    0.809526281896
B          2.430513551063    0.296016428140   -0.259784384622
N          0.644676672496   -2.352329023896    0.232509605807
B         -0.114270859875   -1.374406352350   -0.380820191316
H          1.647376582576   -2.444780642660    0.109817664174
H          3.211210313624   -0.573667813862   -0.268809737736
H          2.333476600811    1.033635425428   -1.175181844434
H          0.795440389851    1.078220391278    0.794366005575
H          1.552903810276   -0.178951197350    1.616479384079
H          0.216034701925   -3.115303203685    0.787727346607
H         -1.240002491067   -1.271852710149   -0.101108036432
H          0.383634603948   -0.711906919453   -1.211977073699
   12
 SCF done      16.32840884
N          1.463208946844    0.364742160915    0.786527972047
B          2.359172789914    0.276510780571   -0.263475567380
N          0.683658026702   -2.339349996435    0.272242600963
B          0.035803955922   -1.279161241158   -0.358001785947
H          1.671188139196   -2.539148109661    0.156629920389
H          3.132789259247   -0.600749713002   -0.298573533772
H          2.301585398187    1.054866337234   -1.140423162311
H          0.720927952346    1.053302491710    0.800387354224
H          1.510492913407   -0.235615916824    1.608150640764
H          0.152028115132   -3.080192769616    0.757482185507
H         -1.094232831861   -1.088187549359   -0.045643383303
H          0.492772969465   -0.761328302175   -1.322558221181
   12
 SCF done      18.42921857
N          1.318799578976    0.291488272895    0.767161305183
B          2.221665146886    0.228721420217   -0.316766279206
N          0.722313721312   -2.356861194348    0.291918212849
B          0.226490179703   -1.185160108995   -0.324775589568
H          1.709679139777   -2.645411658764    0.227287705168
H          3.001287323534   -0.647088283377   -0.354608556787
H          2.221404396307    1.075404385948   -1.140855336504
H          0.692402722846    1.068482450926    0.876910822076
H          1.440335830164   -0.246032966870    1.601041914671
H          0.105765933139   -3.030592047550    0.759812314216
H         -0.896125507236   -0.890780256684   -0.047168675559
H          0.665377169192   -0.836481841198   -1.387212816640
   12
 SCF done      16.80486610
N          1.173708749464    0.139733645316    0.740335458940
B          2.028988343076    0.093066179314   -0.503432322087
N          0.723280116359   -2.327026361828    0.373359588427
B          0.368112447754   -1.025652182391   -0.146351602976
H          1.683175843611   -2.661346204612    0.390517883380
H          2.945905107021   -0.665393945954   -0.428955056374
H          2.128455500378    1.072688649074   -1.135634365666
H          0.640177277471    0.979673674246    0.897759445506
H          1.528168822305   -0.194440380710    1.623646469388
H          0.065353722388   -3.046416607621    0.559402404947
H         -0.790864053867   -0.774118420051   -0.155138444380
H          0.934933758540   -0.765079872781   -1.262764439205
   12
 SCF done       8.05299227
N          1.146974229530    0.093722266755    0.732368773394
B          1.938246600838    0.035126494986   -0.652920122113
N          0.682860131696   -2.341756623767    0.475365989463
B          0.312751826409   -1.037840011732    0.080502223975
H          1.640550863285   -2.618901604533    0.586387106818
H          2.911156189986   -0.703866526322   -0.507777243584
H          2.172775413915    1.117245723482   -1.048583031050
H          0.646735232091    0.955658000070    0.861340966872
H          1.623218860494   -0.145228480944    1.595606820317
H          0.082773924010   -3.155275424291    0.311839007600
H         -0.830620165674   -0.813002861159   -0.167434330514
H          1.101972528020   -0.560192780343   -1.313951141381
   12
 SCF done       4.79559696
N          1.129990528564    0.070165358222    0.724421041818
B          1.944613052802    0.021955566225   -0.654959191220
N          0.663150013133   -2.364994000377    0.478529728613
B          0.277726239565   -1.061881687253    0.171516264969
H          1.635695611493   -2.609812566722    0.652544246440
H          2.920466508535   -0.701303328803   -0.484171554967
H          2.207461136577    1.110499729376   -1.020766291976
H          0.599098380009    0.934805280610    0.827495574136
H          1.642136798985   -0.105401469662    1.587033557012
H          0.081645788917   -3.185334086780    0.261550864075
H         -0.816725639312   -0.830290251713   -0.191529827425
H          1.144137215131   -0.452720370822   -1.398919391575
   12
 SCF done      -2.00732512
N          1.067515127197    0.017509899067    0.680619242092
B          1.986318316975    0.062362361007   -0.694265364991
N          0.625273998194   -2.417364067040    0.509381458715
B          0.192894921315   -1.123088117192    0.290162795927
H          1.575225354889   -2.640377759067    0.753138910809
H          2.907759517474   -0.698662355356   -0.522619221961
H          2.344758731688    1.194889016342   -0.823678997071
H          0.566612447609    0.899989667317    0.741500655229
H          1.664674116350   -0.070199563838    1.505102453279
H          0.089075880624   -3.222958711858    0.224683496675
H         -0.874105634842   -0.896284920137   -0.121053399152
H          1.283392857129   -0.280127276843   -1.590227009853
   12
 SCF done      -3.82103524
N          1.022370522812   -0.004376346466    0.626789396310
B          2.027032065678    0.095560400460   -0.711466906144
N          0.618949462608   -2.432583744998    0.548028091475
B          0.146475199697   -1.149715184765    0.333828209388
H          1.570168771016   -2.625632152644    0.801971938243
H          2.881896517709   -0.717716783740   -0.555606319198
H          2.437128428834    1.216146983137   -0.712157519552
H          0.545171793062    0.884934167120    0.678753308820
H          1.649158593337   -0.090673809024    1.420920528809
H          0.122249757809   -3.251914276651    0.253724808578
H         -0.934119989949   -0.954891051771   -0.071039859565
H          1.342914511886   -0.143450028659   -1.661000657365
   12
 SCF done      -4.06749288
N          1.017500905590   -0.019486597214    0.621293702930
B          2.039728287273    0.123612655368   -0.697593374832
N          0.610715162673   -2.443232853113    0.536450860102
B          0.141525142039   -1.167347298415    0.314452342345
H          1.561583297666   -2.630631615162    0.806840623973
H          2.879215525105   -0.707372622058   -0.563239295068
H          2.460689032643    1.235979848789   -0.637181045128
H          0.523125890945    0.864119144562    0.675141787285
H          1.631375975541   -0.113300848054    1.420612076761
H          0.117861259847   -3.270608032511    0.258444593371
H         -0.932416322273   -0.977681766837   -0.105634735029
H          1.378491477551   -0.068361843154   -1.676842516909
   12
 SCF done      -3.88504529
N          1.017617240061   -0.038719715801    0.624459128240
B          2.031582423177    0.139376968910   -0.702906620008
N          0.613298097860   -2.453916586231    0.510424067371
B          0.132450346587   -1.177334894699    0.322490431707
H          1.582210423265   -2.610944015148    0.746186041553
H          2.899370122032   -0.664309466716   -0.553663273842
H          2.431465703234    1.260845706924   -0.632759247748
H          0.537741362653    0.843902279091    0.705221968819
H          1.642725346879   -0.149497074655    1.414099806600
H          0.140601062067   -3.301381135373    0.246926930272
H         -0.956803186761   -0.986951426084   -0.059850475079
H          1.357136693646   -0.035382468016   -1.667883737987
   12
 SCF done      -4.01877914
N          1.009736387159   -0.039073772557    0.615643998626
B          2.026270918024    0.156075878345   -0.698739751089
N          0.622876023249   -2.456599258460    0.520128102779
B          0.129012631219   -1.186861542787    0.324451827878
H          1.592967305412   -2.607502408434    0.754689655457
H          2.876650333808   -0.679414779379   -0.583642609304
H          2.463962361414    1.258638247134   -0.611789662976
H          0.515201296406    0.842050462983    0.689898262563
H          1.629197212701   -0.149064010490    1.408285715612
H          0.154441344182   -3.311568784945    0.266238126433
H         -0.959075533494   -0.995076997200   -0.057911779202
H          1.368155354320   -0.005914861809   -1.674506867078
   12
 SCF done      -4.36025760
N          0.990707791403   -0.031150744334    0.620487437767
B          2.044310967144    0.152064947191   -0.696300731110
N          0.622745561278   -2.456844319298    0.526231111544
B          0.134157841027   -1.186668759286    0.306490240939
H          1.572291802860   -2.633139917741    0.807738757633
H          2.872424426218   -0.694905583006   -0.566587702292
H          2.480927313544    1.252647521648   -0.577868314152
H          0.502395570822    0.851142431156    0.681285475000
H          1.615900662229   -0.133088935845    1.408235867505
H          0.140277228195   -3.291342750049    0.246644107532
H         -0.936835626512   -1.014844503430   -0.124241070082
H          1.390092096490    0.011818785295   -1.679370160484
   12
 SCF done      -4.58624533
N          0.984616260254   -0.036184716655    0.598600779611
B          2.049429288060    0.165335861835   -0.702482927147
N          0.624401679282   -2.462967559767    0.542441953549
B          0.129476172766   -1.198462362355    0.307805566797
H          1.576508657734   -2.635546521556    0.816240008611
H          2.838626132121   -0.718518648119   -0.594107899673
H          2.522938227401    1.243918516999   -0.528351780926
H          0.492871482696    0.844369518223    0.655955561884
H          1.611578457710   -0.130489123536    1.386231445406
H          0.142690579567   -3.303487390865    0.284960140532
H         -0.945966165459   -1.037283282445   -0.114602075246
H          1.402224862468    0.095003880440   -1.699945753499
   12
 SCF done      -4.59538391
N          0.975933241610   -0.033309743802    0.583706991307
B          2.058770172133    0.170766383392   -0.709005727989
N          0.628973598897   -2.467496843708    0.558678759085
B          0.128989361548   -1.208376808834    0.311461993619
H          1.587628212058   -2.636883237412    0.818199592789
H          2.823168705507   -0.748252487014   -0.645496705396
H          2.571607446787    1.223578422176   -0.482597465828
H          0.471180822800    0.840646446239    0.630862830431
H          1.591866521586   -0.114546292858    1.381249560044
H          0.142446937721   -3.312224420106    0.313588125791
H         -0.952620048498   -1.056494723641   -0.108198679468
H          1.401450662451    0.168281477668   -1.699704254686
   12
 SCF done      -4.57825620
N          0.974777614338   -0.035094058771    0.591834927933
B          2.060029532995    0.167875054194   -0.698272975362
N          0.627122294027   -2.468095412592    0.542932619515
B          0.123643389753   -1.204499286755    0.315521953547
H          1.588294443533   -2.636225518913    0.787126110543
H          2.844995863422   -0.720849693406   -0.609305232888
H          2.554257628575    1.238051213076   -0.519567348850
H          0.474061481686    0.841100817688    0.642298788931
H          1.592379687576   -0.113348259919    1.388873579886
H          0.130489168727   -3.306530119007    0.303217361818
H         -0.960126624710   -1.048960900863   -0.090214423553
H          1.419471154479    0.112264337469   -1.701700341919
   12
 SCF done      -4.49289662
N          0.977237626900   -0.026677933700    0.597386823200
B          2.057698491000    0.166778153100   -0.702638123900
N          0.636931083500   -2.467179290500    0.538522183400
B          0.136019990100   -1.202099494200    0.310552666400
H          1.597909851800   -2.641525234800    0.788472170600
H          2.822965482200   -0.746417518500   -0.609552609100
H          2.565808361200    1.232611768500   -0.526055061300
H          0.465138426700    0.843337692100    0.649424595400
H          1.581040594500   -0.104584942500    1.404942565300
H          0.134853099300   -3.307440036200    0.303176081400
H         -0.946027596300   -1.041051752700   -0.106200058400
H          1.399820223500    0.119936761500   -1.695286213200
   12
 SCF done      -4.60187979
N          0.978552024133   -0.035074432782    0.587734082613
B          2.059044019744    0.169162932375   -0.704562696181
N          0.626814979924   -2.468431941018    0.550493370899
B          0.128328868280   -1.205820535769    0.313630780979
H          1.586722067260   -2.638399471591    0.804716550287
H          2.836404738001   -0.732193814109   -0.622657940677
H          2.557211603892    1.234353994580   -0.504967304207
H          0.475625660888    0.840235692400    0.637322232313
H          1.593398537253   -0.113501359743    1.386775691491
H          0.134477245439   -3.309740914262    0.304545498577
H         -0.954448435450   -1.049983109920   -0.101686605865
H          1.407264325135    0.135081132039   -1.698598640230
   12
 SCF done      -4.60153044
N          0.976431124726   -0.033290950931    0.590496193002
B          2.056831324362    0.165342184491   -0.702115373492
N          0.628767366923   -2.466614469194    0.549339241315
B          0.128166802117   -1.204378347352    0.313157006362
H          1.588843797341   -2.634278151703    0.803696096079
H          2.835204453069   -0.735598083900   -0.626807235615
H          2.559383986460    1.228626333269   -0.505798324302
H          0.473603827767    0.842121086017    0.640330528403
H          1.591253841440   -0.111392908910    1.389682937881
H          0.138602400342   -3.308007668138    0.301310815626
H         -0.953974197206   -1.049685320536   -0.102659448039
H          1.406280907360    0.132844469088   -1.697887417518
   12
 SCF done      -4.60932417
N          0.978716756175   -0.035293227353    0.592365088047
B          2.053950606225    0.168355890422   -0.702734308797
N          0.628633701231   -2.467272005967    0.548269861344
B          0.129705562378   -1.204573337287    0.311169755911
H          1.586946504030   -2.635629096205    0.807630030280
H          2.832250612358   -0.731175653795   -0.623788130905
H          2.557144994239    1.232000418436   -0.510135333588
H          0.476625421538    0.840382495805    0.645364453730
H          1.593774475864   -0.115929142051    1.391109160428
H          0.135482529541   -3.309113517060    0.305234132263
H         -0.949373441942   -1.048142926517   -0.111298478613
H          1.405537912863    0.132078273772   -1.700441210499
   12
 SCF done      -4.60530985
N          0.977745153545   -0.034144458303    0.591168742351
B          2.055568627750    0.166279614060   -0.702425171549
N          0.628846144220   -2.466672398634    0.548082475475
B          0.128642672340   -1.204179146716    0.312723857592
H          1.588274461708   -2.634452024988    0.804124848887
H          2.834127381459   -0.733587960656   -0.623872596446
H          2.557124856477    1.230403408616   -0.507779129638
H          0.475370458466    0.841494249167    0.642678185735
H          1.592552732714   -0.113380611039    1.390244010237
H          0.136992252450   -3.308408962862    0.303017018787
H         -0.952273079228   -1.048672327870   -0.105967176692
H          1.406423972499    0.131008791325   -1.699250045141
   12
 SCF done      -4.60764802
N          0.977556887311   -0.034438009037    0.589640626236
B          2.056690288637    0.167880306987   -0.702363022773
N          0.627535248865   -2.467891529324    0.551365705966
B          0.129365206431   -1.205375193106    0.311520053997
H          1.586658569315   -2.636588778000    0.809356586442
H          2.834181214854   -0.734101614676   -0.628415691308
H          2.561298549141    1.230644658162   -0.507031504520
H          0.474346305653    0.840756237702    0.640323781575
H          1.592123606671   -0.112599808912    1.389145233304
H          0.137967512985   -3.309038777764    0.301613341185
H         -0.952237232466   -1.049990076856   -0.105671009467
H          1.403909477102    0.136430757026   -1.696739080835
   12
 SCF done      -4.60424312
N          0.977245445898   -0.033901604893    0.589989193782
B          2.056517541255    0.166387344395   -0.702195852445
N          0.628356975493   -2.467096911521    0.549605952280
B          0.128679549583   -1.204695032620    0.312515272035
H          1.588182321791   -2.635132177413    0.804838533787
H          2.834911004148   -0.734525749120   -0.626473475940
H          2.559316323847    1.229787991004   -0.506198713653
H          0.474238050344    0.841433392748    0.640604060951
H          1.591685162784   -0.112102951716    1.389532770596
H          0.137564844397   -3.308548250663    0.302586594246
H         -0.953160073498   -1.049628224698   -0.104103751905
H          1.405858488559    0.133710346695   -1.697955564035
   12
 SCF done      -4.60634768
N          0.978035062279   -0.033965012342    0.591460959233
B          2.055143841593    0.165838985773   -0.702331813802
N          0.628908888398   -2.466366421104    0.547926992715
B          0.128674107167   -1.203814206849    0.312893094497
H          1.587857893087   -2.633802686247    0.805833702019
H          2.833123837952   -0.734364343972   -0.623236264792
H          2.556931909710    1.230085792279   -0.508816195337
H          0.475828960134    0.841780797454    0.643261686149
H          1.592875269886   -0.113327011800    1.390529754563
H          0.138692705853   -3.307967283135    0.300099181685
H         -0.952162570754   -1.048245464031   -0.105899376682
H          1.405485729194    0.129835026175   -1.698976700449
   12
 SCF done      -4.60380208
N          0.977331396343   -0.033954562587    0.590345304538
B          2.056289524400    0.166133011326   -0.701965159105
N          0.628668380994   -2.466802839397    0.548598306565
B          0.128434432836   -1.204449547632    0.312693431388
H          1.588524512823   -2.634609738128    0.803417932352
H          2.835329633627   -0.733921990070   -0.625554692852
H          2.558241235568    1.230056752870   -0.506786269821
H          0.474512025693    0.841470648582    0.641513181919
H          1.591761705424   -0.112686742269    1.389796188973
H          0.136808816410   -3.308582293817    0.303801947780
H         -0.953029996796   -1.049250038700   -0.104839135330
H          1.406523967278    0.132285511823   -1.698276016507
   12
 SCF done      -4.60288999
N          0.977649416868   -0.033691793686    0.590187507026
B          2.055947355494    0.166059280272   -0.702635714824
N          0.628757942911   -2.466832827287    0.548984722848
B          0.128871218914   -1.204356019794    0.312647781195
H          1.588691383853   -2.634790784691    0.803651835259
H          2.833622875244   -0.735080170561   -0.624207661192
H          2.558252922915    1.229536254962   -0.505889526301
H          0.474720218465    0.841698041154    0.640759273275
H          1.591930627344   -0.111899338877    1.389880873440
H          0.137886726799   -3.308190502145    0.301966212803
H         -0.953136584128   -1.049248732905   -0.103425734922
H          1.406201529821    0.132484765658   -1.699174548807
   12
 SCF done      -4.60527747
N          0.977408803073   -0.033979678320    0.590501698403
B          2.056092332776    0.166184251685   -0.702011478278
N          0.628402725779   -2.466894656933    0.549146434145
B          0.128511081524   -1.204464525585    0.312809595393
H          1.587848448878   -2.634732047850    0.805532715042
H          2.835066968151   -0.734033333210   -0.626289799796
H          2.558620207244    1.229913632779   -0.507270948539
H          0.474634184246    0.841469865853    0.641642367461
H          1.591979655623   -0.112643315184    1.389868145871
H          0.137796353949   -3.308446981885    0.301923063709
H         -0.952817348040   -1.049228257726   -0.105007736484
H          1.405852221297    0.132543218376   -1.698099037026
   12
 SCF done      -4.60431760
N          0.977532962118   -0.033879347362    0.590440540316
B          2.056115845386    0.166076648400   -0.702026782025
N          0.628945566803   -2.466597870868    0.548204142673
B          0.128579898597   -1.204255397209    0.312445284218
H          1.588757265659   -2.634176914830    0.803258625630
H          2.834082431500   -0.734590307625   -0.624168303454
H          2.558153430651    1.230042931313   -0.507209623350
H          0.474825038558    0.841608396750    0.641753532886
H          1.591929151206   -0.112767179548    1.389914891719
H          0.137309279868   -3.308390614362    0.303184086539
H         -0.952950993232   -1.049017946110   -0.104808178094
H          1.406115757386    0.131635773549   -1.698243197257
   12
 SCF done      -4.60405933
N          0.977614348929   -0.033907435683    0.590425620143
B          2.055992429238    0.166100040183   -0.702304251018
N          0.628591374198   -2.466838298836    0.548805878615
B          0.128652751203   -1.204374914336    0.312745496961
H          1.588246831095   -2.634789220529    0.804282985061
H          2.834816259243   -0.734084273031   -0.625197493365
H          2.557848218645    1.229971689579   -0.506639777140
H          0.474799338186    0.841523794631    0.641515576662
H          1.592060933033   -0.112548056827    1.389902974065
H          0.137341536499   -3.308383758805    0.302601828673
H         -0.952833761086   -1.049104757184   -0.104633086616
H          1.406265375418    0.132123362736   -1.698760732041
   12
 SCF done      -4.60489265
N          0.977257737737   -0.033833999807    0.590407551024
B          2.056082991917    0.166145092526   -0.701932962868
N          0.628758723785   -2.466734242137    0.548796713297
B          0.128450404267   -1.204410451358    0.312771495785
H          1.588540900568   -2.634286935962    0.804172585334
H          2.834016780583   -0.734827818077   -0.625126363112
H          2.559320440628    1.229563100959   -0.507264294218
H          0.474466835366    0.841619640448    0.641309597954
H          1.591650240175   -0.112351120208    1.389933411244
H          0.138019520001   -3.308401174385    0.302135424589
H         -0.953202444329   -1.049337982134   -0.104289978741
H          1.406033504001    0.132544062534   -1.698168160388
   12
 SCF done      -4.60461190
N          0.977579497407   -0.033916974543    0.590397835450
B          2.056113092666    0.166110835793   -0.702152220896
N          0.628601403231   -2.466795629932    0.548809911134
B          0.128652160741   -1.204366040337    0.312567258183
H          1.588207692300   -2.634633223359    0.804567391838
H          2.834687365076   -0.734271501035   -0.625336350274
H          2.558075811076    1.230029401124   -0.506914318090
H          0.474792072397    0.841527381697    0.641602682964
H          1.592048441692   -0.112650754211    1.389846093719
H          0.137513240428   -3.308377999622    0.302479658136
H         -0.952814665389   -1.049101201650   -0.104834553822
H          1.405939522975    0.132133878176   -1.698288368442
   12
 SCF done      -4.60407421
N          0.977504661003   -0.033879454036    0.590448046848
B          2.055948533022    0.166118775060   -0.702230856387
N          0.628694395404   -2.466796848150    0.548690082042
B          0.128560208325   -1.204378717106    0.312847343888
H          1.588439682353   -2.634634316414    0.803905743927
H          2.834542549586   -0.734245004331   -0.624909908640
H          2.558262604490    1.229810458446   -0.506802942557
H          0.474694003986    0.841557733771    0.641446307660
H          1.591908731513   -0.112462757445    1.389960252947
H          0.137434499365   -3.308407265658    0.302630129654
H         -0.952987403533   -1.049170297116   -0.104432917339
H          1.406393169087    0.132175865180   -1.698806262144
   12
 SCF done      -4.60447092
N          0.977516288684   -0.033893171556    0.590415574225
B          2.056050460323    0.166114446300   -0.702151702959
N          0.628651134456   -2.466789216942    0.548772074950
B          0.128597413113   -1.204376092595    0.312689350307
H          1.588327845496   -2.634594016957    0.804292398694
H          2.834558443917   -0.734330398558   -0.625177532049
H          2.558281625464    1.229895538089   -0.506906520998
H          0.474719628690    0.841549518741    0.641509666923
H          1.591951286574   -0.112547398553    1.389897390819
H          0.137547630213   -3.308389666778    0.302490253108
H         -0.952920143927   -1.049154226833   -0.104627686942
H          1.406114021497    0.132202857542   -1.698458246276
   12
 SCF done      -4.60446633
N          0.977521301354   -0.033894000515    0.590412625035
B          2.056054742977    0.166115378090   -0.702155876487
N          0.628649988916   -2.466788444051    0.548767875595
B          0.128599570715   -1.204374416649    0.312683087680
H          1.588323064596   -2.634595464503    0.804298214027
H          2.834568526943   -0.734323452348   -0.625167060221
H          2.558270893862    1.229903189838   -0.506910061034
H          0.474723712947    0.841547965560    0.641516560068
H          1.591957327713   -0.112553926134    1.389893297200
H          0.137541909467   -3.308388792967    0.302492686453
H         -0.952916181684   -1.049149522469   -0.104636035292
H          1.406100776693    0.132189658248   -1.698450293224
   12
 SCF done      -4.60446779
N          0.977520466566   -0.033894032760    0.590414040052
B          2.056051833500    0.166115655791   -0.702154177741
N          0.628649919826   -2.466789698189    0.548770042568
B          0.128599649196   -1.204375626561    0.312685743826
H          1.588323898863   -2.634597673623    0.804297134245
H          2.834565286451   -0.734323949811   -0.625173214862
H          2.558272063512    1.229901752690   -0.506907583670
H          0.474722829473    0.841547970258    0.641513806641
H          1.591955785245   -0.112551468462    1.389895461037
H          0.137541841354   -3.308389701265    0.302493526829
H         -0.952916148504   -1.049151209156   -0.104634069205
H          1.406108209019    0.132196153188   -1.698455689821
