   12
 SCF done      35.71314675
N          2.284838406019    0.528763537305    0.325855898376
B          1.871472311473   -0.692362643642    0.905485331318
N         -0.182782607643   -1.259124073679   -1.115453690081
B          0.477229678824   -1.715769826118    0.073158472577
H          0.348163641485   -0.690060437518   -1.785500150135
H          2.543804608606   -1.200000559707    1.716555110103
H          1.738662354499   -1.806984408489   -0.110899450409
H          1.700519201177    1.105639117846   -0.258462344837
H          3.163994127378    0.977053636142    0.574048961900
H         -1.154823317089   -1.038648227379   -1.129122321211
H          0.648351866341   -0.793516411198    1.085150388494
H         -0.007292400768   -2.592739552463    0.672581075105
