   12
 SCF done      39.67807320
N          2.333513380222    0.524714159576    0.333165616815
B          2.113233624739   -0.774791040191    0.762507171360
N         -0.257194685384   -1.311011682130   -1.115923526910
B          0.331216345898   -1.637390084958    0.197031162861
H          0.370032551778   -0.917116178405   -1.819083808087
H          2.714918572142   -1.217134804636    1.663239121892
H          1.686801202847   -1.639679433347   -0.025020423454
H          1.730847802770    1.020115082244   -0.323352247532
H          3.111484394038    1.082139757326    0.689146312348
H         -1.101584505982   -0.767281909014   -1.126387466771
H          0.257775724478   -0.817834286543    1.106404293951
H          0.141093462852   -2.722479428722    0.611671074728
