%mem=16GB
%nprocshared=4
# opt freq ub3lyp/6-31G(d,p) scf=(maxcycles=1024)

something title

0 1
N -1.63273 -0.56495 -0.03514
B -0.92574 0.67814 -0.03580
N 1.63234 -0.56523 0.03492
B 0.92589 0.67800 0.03580
H 2.58063 -0.63426 -0.29698
H -1.51253 1.70059 0.14785
H -0.07556 0.82858 -0.97859
H -1.23365 -1.44561 -0.31677
H -2.57701 -0.63529 0.29962
H 1.23378 -1.44587 0.31696
H 0.07466 0.82837 0.97762
H 1.51298 1.70046 -0.14767

