%mem=16GB
%nprocshared=4
#irc=(forward calcfc, maxpoint=100, stepsize=5) ub3lyp/6-31G(d,p) scf=(maxcycles=1024)

something title

0 1
N -1.66995 -0.54783 -0.04419
B -0.91196 0.66949 -0.02259
N 1.66995 -0.54783 0.04419
B 0.91196 0.66949 0.02259
H 2.63036 -0.55167 -0.25579
H -1.48479 1.71152 0.07500
H -0.03646 0.79829 -0.97612
H -1.27066 -1.47077 -0.10159
H -2.63036 -0.55167 0.25580
H 1.27066 -1.47077 0.10159
H 0.03646 0.79829 0.97612
H 1.48479 1.71152 -0.07500

