%mem=16GB
%nprocshared=4
#freq ub3lyp/6-31G(d,p) scf=(maxcycles=1024)

something title

0 1
N -1.55785 -0.60413 -0.03212
B -1.14423 0.71540 -0.11508
N 1.53851 -0.58932 -0.01358
B 1.05366 0.76130 0.11803
H 2.28098 -0.81631 -0.65587
H -1.80755 1.64313 0.22061
H -0.13478 0.92978 -0.72262
H -0.92632 -1.35097 -0.29225
H -2.43536 -0.89994 0.36493
H 1.46747 -1.24686 0.74731
H 0.56486 1.08185 1.16450
H 1.57899 1.62998 -0.52144

