%mem=16GB
%nprocshared=4
#opt freq ub3lyp/6-31G(d,p) scf=(maxcycles=1024)

something title

0 1
N -1.66195 -0.54983 -0.03819
B -0.91796 0.67349 -0.03059
N 1.66195 -0.54983 0.03819
B 0.91796 0.67349 0.03059
H 2.61836 -0.57967 -0.27179
H -1.49079 1.70952 0.11100
H -0.05446 0.80629 -0.97812
H -1.26666 -1.46477 -0.23159
H -2.61836 -0.57967 0.27180
H 1.26666 -1.46477 0.23159
H 0.05446 0.80629 0.97812
H 1.49079 1.70952 -0.11100

