%mem=16GB
%nprocshared=4
#opt freq ub3lyp/6-31G(d,p) scf=(maxcycles=1024)

something title

0 1
N -1.65834 -0.56417 -0.03371
B -1.03530 0.70166 -0.12002
N 1.65828 -0.56421 0.03388
B 1.03558 0.70149 0.11998
H 2.48972 -0.72665 -0.51530
H -1.58049 1.68096 0.29489
H -0.21675 0.86467 -1.01241
H -1.27780 -1.39530 -0.46043
H -2.48985 -0.72632 0.51551
H 1.27704 -1.39546 0.45950
H 0.21627 0.86425 1.01182
H 1.58090 1.68079 -0.29457

