   12
 SCF done       0.00000000
N          2.320126998818    0.764502550832    0.562518988026
B          2.912511702388   -0.396688060615    0.123480660137
N          0.056091023485   -1.755057732314   -0.718554342381
B         -0.816377883534   -1.665348981017    0.341301818974
H         -0.164836102999   -2.197994534974   -1.595109609308
H          3.105861445757   -1.264306925552    0.886901617980
H          3.235282504574   -0.479723965391   -1.003766982694
H          2.124709911723    1.557413521922   -0.026381587673
H          2.015163527508    0.911051970113    1.509953732120
H          0.999798260713   -1.399842107418   -0.685248880744
H         -0.462525088219   -1.135867386172    1.323713724862
H         -1.893668429815   -2.115888198314    0.234588141800
