   12
 SCF done       5.92332542
N          2.448114880686    0.682910180068    0.474497168422
B          2.577238023631   -0.668537813489    0.747845755675
N         -0.312540724174   -1.300533725954   -1.109412486686
B         -0.247769469971   -1.782096643865    0.173075299045
H         -0.512961279143   -1.857455470142   -1.922265898554
H          3.027449273179   -0.970750061603    1.787255641712
H          2.313234164667   -1.470193481534   -0.069279093114
H          2.028812387741    1.095351791631   -0.360378306140
H          2.758209800103    1.383380349232    1.148106503479
H         -0.085322151682   -0.343721299257   -1.341329144286
H         -0.070276087028   -1.033082350861    1.064716868411
H         -0.492050947609   -2.913021323126    0.360564973235
