   12
 SCF done       6.84483516
N          2.468155189694    0.670349611472    0.464637201815
B          2.577651675885   -0.675872971380    0.776121838835
N         -0.330625831035   -1.278191860780   -1.118097879606
B         -0.237716607737   -1.795086419939    0.164028303720
H         -0.478666458275   -1.813062200062   -1.959216044754
H          3.114669366489   -0.962860461610    1.782690479213
H          2.180920890085   -1.471761988887    0.026894239086
H          1.979450347803    1.053262576979   -0.344893245573
H          2.866358285633    1.383927384470    1.072789010221
H         -0.198881254420   -0.301560544047   -1.303404981897
H         -0.123755395013   -1.048913679312    1.068888672985
H         -0.385422338609   -2.937979295903    0.322959687053
