   12
 SCF done       7.28296636
N          2.497884877587    0.651973436572    0.438929195398
B          2.596189175253   -0.684646312942    0.780961943157
N         -0.362073350865   -1.249998756656   -1.106190488595
B         -0.248246047112   -1.784959149617    0.163201936969
H         -0.465484925630   -1.783747159357   -1.952566391780
H          3.080663917519   -0.959642529270    1.804434943704
H          2.125689820957   -1.503189116066    0.080048526354
H          1.974523488118    1.021378681318   -0.353762194098
H          2.880472270463    1.391539852456    1.039802365316
H         -0.249619627380   -0.261929809687   -1.288767552572
H         -0.119895250704   -1.066763240628    1.079238821095
H         -0.277966477706   -2.947765744924    0.268066176153
