   12
 SCF done      11.42573415
N          2.460594559119    0.639402839257    0.404019598011
B          2.562194428912   -0.689431412585    0.779476746006
N         -0.357957320554   -1.238200204645   -1.097699995468
B         -0.181278238703   -1.787109370560    0.162777726709
H         -0.415850256684   -1.758866024746   -1.958213829699
H          3.088360842408   -0.946246303765    1.796755409940
H          2.038544744465   -1.529061599661    0.127026135988
H          1.912435387954    1.089214585711   -0.331912444710
H          2.963806410964    1.335171336159    0.952563402907
H         -0.320944111843   -0.248266062304   -1.258662066606
H         -0.129091423573   -1.078709478442    1.097705139552
H         -0.188677151765   -2.965648153419    0.279561458568
