   12
 SCF done       6.32945353
N          2.494181427882    0.653542219193    0.433163756086
B          2.613373335937   -0.681048180569    0.788884261258
N         -0.377854664320   -1.244097224553   -1.101068043490
B         -0.228517015690   -1.808341568226    0.159349332104
H         -0.420393267893   -1.759568937835   -1.962145526577
H          3.208528726576   -0.944796876976    1.755699646017
H          2.098915035641   -1.484480741912    0.130243388696
H          1.929823661910    1.004212827011   -0.333576876214
H          2.948189080464    1.393693830053    0.977688632128
H         -0.372163972305   -0.243834221553   -1.247087055028
H         -0.237809735594   -1.098750786921    1.093916117911
H         -0.224134741908   -2.964280186611    0.258329648109
