   12
 SCF done       0.37962687
N          2.337389348504    0.776836128254    0.568586302281
B          2.880537207628   -0.438121338517    0.215840333644
N          0.015596445730   -1.684506760734   -0.807811709057
B         -0.751211059985   -1.709944339258    0.332666449299
H         -0.231967793231   -2.135080277929   -1.673509343201
H          3.094920773519   -1.231138764095    1.049217103722
H          3.106909699236   -0.650067936867   -0.915296683229
H          2.095502243976    1.503205052069   -0.083792729471
H          2.117558819315    1.028409524963    1.517407922769
H          0.921348389664   -1.244890449640   -0.843656118262
H         -0.361480234913   -1.147887528417    1.282704103666
H         -1.792965968943   -2.244563158529    0.311041649039
