   12
 SCF done       7.94076692
N          2.474873125879    0.620369577597    0.446991593564
B          2.580650155226   -0.693240891100    0.836575342396
N         -0.418900733953   -1.213120793846   -1.101328228909
B         -0.202698025251   -1.764478220535    0.152822282138
H         -0.217138315525   -1.704827085819   -1.966770528758
H          3.328281138188   -0.989290517586    1.681616676778
H          1.946519560144   -1.474252929398    0.268488216082
H          1.832764958423    0.976661042182   -0.263729090193
H          3.118422190405    1.316202231780    0.788785047775
H         -0.670976482473   -0.244325423308   -1.236499854787
H         -0.388473996043   -1.095224372049    1.103479111152
H          0.048814295480   -2.912222466819    0.242966713963
