   12
 SCF done      10.00844103
N          2.480995268006    0.616832980020    0.456353054789
B          2.585145806972   -0.700936973486    0.827004282021
N         -0.404905853257   -1.223144870169   -1.110278453645
B         -0.188146079345   -1.740098876299    0.162698548411
H         -0.083525119954   -1.671504484113   -1.963214103970
H          3.369550332445   -1.033331213431    1.626034760230
H          1.861574430796   -1.445933054395    0.313396522439
H          1.801056155194    0.986190556885   -0.206489976243
H          3.172017318495    1.285711940448    0.737853136983
H         -0.782547628130   -0.291192356463   -1.260059220662
H         -0.474390956933   -1.072466218363    1.094906612043
H          0.095314196010   -2.887877279634    0.275192118703
