   12
 SCF done      11.39736186
N          2.474661385235    0.620547663096    0.459625958923
B          2.559212071350   -0.702276309276    0.822161193200
N         -0.410246536749   -1.229971000120   -1.104335855866
B         -0.168330480797   -1.737489930671    0.171549416362
H         -0.040271884937   -1.654270378138   -1.957692058229
H          3.345383080130   -1.065541270756    1.609675427074
H          1.813105288886   -1.414407408882    0.304285749892
H          1.804444889840    0.991958441623   -0.210655850799
H          3.184828072546    1.272241904201    0.722356467065
H         -0.798139438001   -0.299844953274   -1.250639545363
H         -0.469739784692   -1.074477413085    1.093234815010
H          0.137231207490   -2.884219193618    0.293831563932
