   12
 SCF done      13.84227288
N          2.458011767947    0.609456484781    0.454209135606
B          2.540628071327   -0.714677019536    0.803629653634
N         -0.384277181688   -1.222250788923   -1.099009067807
B         -0.118000715949   -1.714392881492    0.186845223188
H          0.011146335654   -1.632147340572   -1.952749862018
H          3.304953455544   -1.084957793860    1.601545321671
H          1.804446655963   -1.414513347103    0.268541169175
H          1.790309048629    0.990401563454   -0.219717898828
H          3.173609829896    1.256374530481    0.723052879846
H         -0.833708896041   -0.319779770628   -1.239682890075
H         -0.455666838027   -1.054183520990    1.105973357023
H          0.140686337144   -2.877079964613    0.320760259685
