   12
 SCF done      16.45048646
N          2.452083366119    0.600845818938    0.443182967207
B          2.520636954856   -0.722261816390    0.786177958502
N         -0.376917473857   -1.227090014723   -1.096467126024
B         -0.074026461031   -1.698270719530    0.197543631232
H          0.054595574025   -1.615807085834   -1.951444893446
H          3.273522080666   -1.113915257964    1.588147943774
H          1.756890532841   -1.394515166575    0.262387086967
H          1.774163964494    0.991007669643   -0.211822207431
H          3.156953295134    1.234782775380    0.713719654504
H         -0.836299635784   -0.326196579234   -1.229251694290
H         -0.433967344135   -1.041790574993    1.102033258934
H          0.164503017070   -2.864538897716    0.349190701170
