   12
 SCF done      23.06155995
N          2.410597093676    0.577917322701    0.437574026782
B          2.454047041726   -0.748720725587    0.754083213860
N         -0.365590212694   -1.251066459226   -1.090830023796
B          0.020596301555   -1.655253415122    0.225012363759
H          0.156103329887   -1.523612274362   -1.939270957868
H          3.153426137095   -1.179262528684    1.592054805755
H          1.701986279056   -1.384844989270    0.175689159450
H          1.752458939416    0.972390852256   -0.244949903460
H          3.130426895478    1.196803594452    0.710633144528
H         -0.873550505600   -0.365012046742   -1.197496862747
H         -0.336942062088   -0.983247690536    1.104093661665
H          0.228578632794   -2.833841488581    0.426804653372
