   12
 SCF done      28.03913125
N          2.277214338093    0.569511769685    0.374040826619
B          1.856144038158   -0.599533788220    1.007094861663
N         -0.161316034390   -1.241916346877   -1.121661293558
B          0.520770775145   -1.799532069612   -0.018567363093
H          0.337296807613   -0.667238850738   -1.816302459606
H          2.597828386224   -1.159569425557    1.723173125752
H          1.717681923504   -1.959768450165   -0.154597985822
H          1.674952956435    1.202849611208   -0.141830399376
H          3.217093352140    0.938474284588    0.453150770735
H         -1.156183431792   -1.153474346032   -1.174726035378
H          0.633933480013   -0.747323171783    1.161782359665
H         -0.083278720843   -2.560229065398    0.661840873499
