   12
 SCF done      22.79363636
N          2.264001970432    0.601291959967    0.417118486480
B          1.835023347687   -0.491556756072    1.112023637672
N         -0.162663320988   -1.258064605182   -1.125253428387
B          0.531977781841   -1.887156638690   -0.099642402883
H          0.345624309912   -0.658761410285   -1.768013624355
H          2.600546044821   -1.130629486297    1.736542546426
H          1.692074906424   -2.034361133799   -0.193689671499
H          1.666309232764    1.238479367186   -0.119380868092
H          3.234052473599    0.904149040496    0.354010703039
H         -1.159041054242   -1.176221143940   -1.175877658898
H          0.689014257715   -0.724557406240    1.177834274381
H         -0.104782079466   -2.560361636143    0.637725287516
