   12
 SCF done      15.40980300
N          2.301551973798    0.665939673684    0.439757996156
B          1.895715129235   -0.427625208920    1.154458445746
N         -0.189708788024   -1.271894105145   -1.145710238449
B          0.462084663811   -1.996882372874   -0.138684802856
H          0.328613214550   -0.752629786728   -1.834441920186
H          2.694361006707   -1.085660104941    1.711437724807
H          1.647731707214   -2.172734254066   -0.239434115303
H          1.676298035548    1.311617517813   -0.036723524621
H          3.266127794779    0.974456738121    0.359435427900
H         -1.181660902875   -1.175174802131   -1.209845197099
H          0.722614257872   -0.663161830939    1.254542915534
H         -0.191590222414   -2.584001312672    0.638604569672
