   12
 SCF done       7.77988295
N          2.343311945843    0.744364534728    0.486360080647
B          1.950105827209   -0.342519085417    1.250561940457
N         -0.219927164645   -1.333940079297   -1.198111221964
B          0.394579422595   -2.117365610550   -0.212777983038
H          0.313169556568   -0.786845175616   -1.860205415516
H          2.779868110031   -1.014231696675    1.729854301518
H          1.548053408694   -2.268496222528   -0.273127639017
H          1.702313014556    1.365230467475    0.017136317973
H          3.304218043430    0.997216186985    0.310067507541
H         -1.221527771963   -1.173805258172   -1.242605238728
H          0.822156838538   -0.568158133815    1.394616527772
H         -0.284183360456   -2.679199775919    0.551628103456
