   12
 SCF done       6.60459556
N          2.353950833163    0.753585461746    0.483955755055
B          1.973399684237   -0.328528302017    1.250809592741
N         -0.214922735435   -1.338556080510   -1.203794399273
B          0.369957552094   -2.144654738291   -0.228427993549
H          0.321239566633   -0.779082078263   -1.854204802214
H          2.792512659622   -0.994908141519    1.743217861097
H          1.525082828703   -2.352605223984   -0.280647192533
H          1.710039456114    1.385054687482    0.034077600082
H          3.312857276992    1.006511410541    0.303141707517
H         -1.204781111144   -1.158926854056   -1.246477393328
H          0.829812878048   -0.527839380134    1.424043641633
H         -0.337011018629   -2.697800609894    0.527702904172
