   12
 SCF done       4.19700337
N          2.381748282920    0.788082466834    0.507821714457
B          2.014141540279   -0.259231173445    1.327600440944
N         -0.243337013472   -1.358935273757   -1.216425678599
B          0.322603149272   -2.224759893800   -0.292275827730
H          0.303021103732   -0.821022690933   -1.883953855226
H          2.840498651483   -0.952457210285    1.771746570492
H          1.474601158526   -2.427917205492   -0.322144303063
H          1.729402605943    1.407312063916    0.049748343875
H          3.340447198985    1.023084454903    0.284280397968
H         -1.221809700310   -1.133003185910   -1.242719620071
H          0.872598717162   -0.457298147630    1.504200362491
H         -0.381777824420   -2.761604053302    0.465518735761
