   12
 SCF done       3.44555305
N          2.397539260305    0.791251539506    0.494944302037
B          2.013558898762   -0.245578075674    1.322485888100
N         -0.245676841947   -1.364430646486   -1.216981112189
B          0.301832811470   -2.260339120543   -0.315151825846
H          0.315894394778   -0.818580989442   -1.848582378466
H          2.840431589055   -0.949564137512    1.766486327757
H          1.461465506686   -2.430315927183   -0.328199265380
H          1.755969065057    1.445636927457    0.077887584902
H          3.357384865019    1.001378038545    0.252794727477
H         -1.231294581465   -1.149602485345   -1.269729126171
H          0.871911011255   -0.379531917736    1.582106337738
H         -0.406878108775   -2.818073054487    0.435335821140
