   12
 SCF done       3.45863432
N          2.403409369193    0.823945127996    0.512827538780
B          2.039077760954   -0.239556660951    1.317570741723
N         -0.243197660828   -1.371723583750   -1.220889514063
B          0.265539054935   -2.266181168415   -0.304356273570
H          0.337395962772   -0.848893539175   -1.862914533594
H          2.874129485268   -0.956472365987    1.719922889837
H          1.422738347033   -2.487677699056   -0.303192924759
H          1.751556212013    1.483106911985    0.126251402573
H          3.352870983801    1.034624711089    0.251973221202
H         -1.225677076328   -1.152058266828   -1.300889888004
H          0.910824266072   -0.378476890274    1.590603534027
H         -0.456528834584   -2.818386425533    0.426491087247
