   12
 SCF done       1.37339533
N          2.357392599491    0.773814159539    0.573999487142
B          2.800759129900   -0.510648757635    0.365834430509
N         -0.070819875797   -1.573894259400   -0.937152817009
B         -0.639990335469   -1.739202971366    0.300824201274
H         -0.361170407906   -2.055352670609   -1.772617936739
H          3.064902499837   -1.181267050466    1.282762343248
H          2.968078828221   -0.878017717140   -0.733348978158
H          2.112712513831    1.419804606149   -0.157168690760
H          2.214472279033    1.163963394271    1.490168205764
H          0.743782157769   -1.001632227386   -1.082546599371
H         -0.196852614726   -1.146838108481    1.206520805616
H         -1.561128903883   -2.448478246476    0.416122829684
