   12
 SCF done       4.13735920
N          2.385287351426    0.821136196324    0.511727140285
B          2.035117980577   -0.249161656429    1.309304628543
N         -0.217472815258   -1.370842953484   -1.222994262815
B          0.279144315287   -2.259586212672   -0.294313886563
H          0.350138430250   -0.861624063866   -1.883781121947
H          2.876269246213   -0.958007981900    1.711964853468
H          1.415018940085   -2.504439655752   -0.296619453368
H          1.723471992877    1.478661631413    0.135092175087
H          3.335405319806    1.046830118171    0.249436701480
H         -1.190510319498   -1.127116253892   -1.281136251275
H          0.911928087545   -0.395147549841    1.591926516461
H         -0.471660658807   -2.798451466869    0.422790241944
