   12
 SCF done       2.47201294
N          2.405417020142    0.854367696347    0.519050314847
B          2.062538467257   -0.208862688448    1.331173934846
N         -0.226695775318   -1.382251315059   -1.221896454522
B          0.230009215944   -2.324942449399   -0.324097243006
H          0.381537111309   -0.885023956210   -1.848257124596
H          2.907345968887   -0.932733346208    1.694339340829
H          1.372499014449   -2.590578532048   -0.314677740150
H          1.744973971342    1.529016498028    0.168955978585
H          3.344668933652    1.049047884855    0.214648394982
H         -1.190486209336   -1.092072470566   -1.300966961861
H          0.941204652561   -0.344258623228    1.646686657409
H         -0.540874500589   -2.849458546964    0.388438183835
