   12
 SCF done       2.11161134
N          2.405670076243    0.883035771166    0.537735439449
B          2.074546142918   -0.185990974938    1.342854017946
N         -0.219218105089   -1.400362473670   -1.233210714956
B          0.212996510014   -2.353784260289   -0.336815376318
H          0.392847845047   -0.946783105496   -1.885416541119
H          2.917378778548   -0.928531323774    1.666919384417
H          1.339721468987   -2.673181825959   -0.352392290380
H          1.742894129963    1.569341473920    0.216787130023
H          3.335879950653    1.069548134760    0.205487488152
H         -1.165202113100   -1.060065895950   -1.288961344536
H          0.961832395177   -0.313116161564    1.688410576250
H         -0.567209208862   -2.837859207206    0.391999512372
