   12
 SCF done       2.05300867
N          2.411157480231    0.912439099323    0.553055893219
B          2.085498020148   -0.169698952738    1.343654451684
N         -0.217593266467   -1.420207290861   -1.249267444292
B          0.191357086626   -2.386881892116   -0.354501766334
H          0.402439009267   -0.987147146861   -1.914556783196
H          2.930499832357   -0.920325195963    1.650531903449
H          1.299960008262   -2.761308896892   -0.383032495691
H          1.747052894507    1.614248798145    0.270528797879
H          3.336668412557    1.096346731865    0.200255879585
H         -1.152040170024   -1.047472627976   -1.289143265568
H          0.984921605763   -0.280527769496    1.725045153032
H         -0.587783043026   -2.827214705229    0.400826957433
