   12
 SCF done       2.04758171
N          2.408121542250    0.908243442203    0.550042480933
B          2.081953894845   -0.170576924111    1.345113543533
N         -0.211585187014   -1.414278244606   -1.244634141746
B          0.198690404403   -2.378474365847   -0.348728899403
H          0.401152758692   -0.982072785093   -1.915726275977
H          2.923963212877   -0.923149174813    1.651756296295
H          1.303461732803   -2.761703385788   -0.385084944999
H          1.742520787378    1.606443531378    0.262481079166
H          3.333660661529    1.091160303039    0.198549641842
H         -1.146689015338   -1.042577910930   -1.280153573969
H          0.978749064852   -0.284883993465    1.717998378606
H         -0.581861986879   -2.825880340966    0.401783697019
