   12
 SCF done       2.04382530
N          2.408430859777    0.910540244608    0.552456172444
B          2.083552407821   -0.169252688004    1.346715660324
N         -0.211715657081   -1.416365887421   -1.246959546015
B          0.196792774313   -2.380977523372   -0.350833812354
H          0.400433808481   -0.987325483978   -1.921079240392
H          2.925596914362   -0.923370324809    1.649505650098
H          1.301181602609   -2.766146864623   -0.386770473535
H          1.741965858904    1.608553226951    0.266367767328
H          3.333526282191    1.093963026633    0.199888055555
H         -1.145535870994   -1.041216866927   -1.279868981872
H          0.980280844037   -0.285645618235    1.718525390467
H         -0.582371954218   -2.820505089722    0.405450638952
