   12
 SCF done       1.94055395
N          2.358361656980    0.767749915029    0.571477445774
B          2.750613805780   -0.543443114044    0.435904386317
N         -0.098298514292   -1.525720832587   -0.987751836691
B         -0.563890200836   -1.749519862937    0.282825343586
H         -0.413006359313   -2.011657334727   -1.811713252951
H          3.021496835018   -1.158976416338    1.389668170687
H          2.869874139375   -0.991940100042   -0.638471719785
H          2.105521057354    1.375255775017   -0.189838079535
H          2.263052024805    1.219385308906    1.465492982403
H          0.663229024814   -0.897242118963   -1.177777176136
H         -0.096804369097   -1.144070755208    1.167255645991
H         -1.428011230190   -2.517570313005    0.446325371540
