   12
 SCF done       2.04373025
N          2.408484736343    0.909898168496    0.551634131850
B          2.082944943549   -0.169597224145    1.346105305136
N         -0.211329487120   -1.415646196413   -1.246118071303
B          0.197328459677   -2.381128400369   -0.350939653205
H          0.399999356815   -0.985433264944   -1.920217298785
H          2.925338341304   -0.922210514560    1.651791932309
H          1.301400802929   -2.766691833802   -0.387576044257
H          1.741966800652    1.607311889272    0.264319797716
H          3.333953064501    1.093756122029    0.200324651684
H         -1.145415010575   -1.040898067669   -1.278050376130
H          0.979634068853   -0.285387906989    1.717796796895
H         -0.582168206528   -2.821722619807    0.404326109190
