   12
 SCF done       2.04406104
N          2.408332746890    0.909679817729    0.551480479704
B          2.082708106014   -0.169721910061    1.346047668398
N         -0.211178317080   -1.415476426951   -1.246001474420
B          0.197643510723   -2.380740037124   -0.350657902627
H          0.400129003088   -0.985228152268   -1.920113978433
H          2.925021139408   -0.922553349230    1.651499745575
H          1.301670617613   -2.766259197473   -0.387348930411
H          1.741917678435    1.607280943842    0.264371245306
H          3.333755950797    1.093286998499    0.199917393099
H         -1.145362589485   -1.041012886988   -1.278120955096
H          0.979488840984   -0.285155721707    1.718145176967
H         -0.581988817187   -2.821849927269    0.404178813340
