   12
 SCF done       2.40502183
N          2.359820142610    0.761051151962    0.568597832896
B          2.712029720079   -0.567022978286    0.498536038842
N         -0.123687203200   -1.490574879407   -1.027400758948
B         -0.495780108227   -1.764447395215    0.263660411520
H         -0.466853618880   -1.973242514735   -1.841649382017
H          2.992422004088   -1.132889608075    1.479728762814
H          2.794104061527   -1.079821185539   -0.549120992875
H          2.101988666914    1.333328001540   -0.218327474579
H          2.301016249151    1.263422814696    1.438713493126
H          0.589672817954   -0.817512889702   -1.249818589579
H         -0.014274073300   -1.143733201254    1.129751418018
H         -1.318320788317   -2.566307164885    0.460726521982
