   12
 SCF done       2.68643010
N          2.387420225229    0.764348358313    0.553622205312
B          2.722773138426   -0.573699948149    0.559246618108
N         -0.179325399834   -1.457570225721   -1.058207762564
B         -0.470935101000   -1.790477565010    0.244311168341
H         -0.528270998160   -1.940115269280   -1.871676767886
H          3.001523089098   -1.079602920514    1.577141788513
H          2.736574135974   -1.158368281636   -0.454133189021
H          2.116787356118    1.290840365297   -0.265529939124
H          2.361315035055    1.324661474544    1.400541832815
H          0.484414464932   -0.731123764172   -1.290154726357
H          0.013854902631   -1.161572800450    1.100259360498
H         -1.213992978071   -2.665069272222    0.457976692666
