%mem=16GB
%nprocshared=4
#ub3lyp/6-31G(d,p) scf=(maxcycles=1024)

something title 

0 1 
N 1.322304 0.279942 0.764133
B 2.167862 0.194983 -0.376371
N 0.681412 -2.343638 0.361122
B 0.278652 -1.166775 -0.327079
H 1.628475 -2.728507 0.270881
H 3.005617 -0.634482 -0.397623
H 2.160995 1.085686 -1.153070
H 0.733547 1.078338 0.918775
H 1.475750 -0.254834 1.599613
H 0.007139 -2.981320 0.790415
H -0.812664 -0.779704 -0.117769
H 0.776283 -0.925356 -1.384190

