%mem=16GB
%nprocshared=4
#ub3lyp/6-31G(d,p) scf=(maxcycles=1024)

something title 

0 1 
N 1.299611 0.254055 0.756621
B 2.150104 0.179685 -0.394257
N 0.685043 -2.334832 0.388897
B 0.308151 -1.135532 -0.288097
H 1.624051 -2.730884 0.284387
H 3.005215 -0.635633 -0.405196
H 2.152724 1.085517 -1.155048
H 0.708909 1.055486 0.909287
H 1.481340 -0.252979 1.604825
H 0.000684 -2.991717 0.733952
H -0.798413 -0.761260 -0.123871
H 0.807951 -0.907572 -1.362664

