%mem=16GB
%nprocshared=4
#ub3lyp/6-31G(d,p) scf=(maxcycles=1024)

something title 

0 1 
N 1.284482 0.236797 0.751613
B 2.138265 0.169487 -0.406181
N 0.687464 -2.328961 0.407414
B 0.327818 -1.114704 -0.262109
H 1.621101 -2.732470 0.293391
H 3.004948 -0.636401 -0.410245
H 2.147210 1.085404 -1.156366
H 0.692484 1.040251 0.902962
H 1.485066 -0.251742 1.608300
H -0.003619 -2.998649 0.696310
H -0.788912 -0.748964 -0.127939
H 0.829063 -0.895715 -1.348313

