%mem=16GB
%nprocshared=4
#ub3lyp/6-31G(d,p) scf=(maxcycles=1024)

something title 

0 1 
N 1.217882 0.168156 0.736053
B 2.077965 0.118349 -0.470831
N 0.689402 -2.309184 0.477689
B 0.389036 -1.035910 -0.144349
H 1.616214 -2.710471 0.361121
H 2.995282 -0.640604 -0.432432
H 2.111136 1.070847 -1.168044
H 0.638719 0.992523 0.883747
H 1.509103 -0.227616 1.628318
H 0.002422 -3.039152 0.516041
H -0.760364 -0.722928 -0.170254
H 0.938573 -0.839674 -1.268223

