%mem=16GB
%nprocshared=4
#ub3lyp/6-31G(d,p) scf=(maxcycles=1024)

something title 

0 1 
N 1.269354 0.219539 0.746605
B 2.126427 0.159288 -0.418104
N 0.689885 -2.323090 0.425931
B 0.347484 -1.093875 -0.236120
H 1.618152 -2.734055 0.302394
H 3.004681 -0.637169 -0.415294
H 2.141696 1.085292 -1.157685
H 0.676058 1.025016 0.896636
H 1.488793 -0.250505 1.611775
H -0.007922 -3.005581 0.658668
H -0.779411 -0.736668 -0.132007
H 0.850175 -0.883859 -1.333963

