%mem=16GB
%nprocshared=4
#ub3lyp/6-31G(d,p) scf=(maxcycles=1024)

something title 

0 1 
N 1.200615 0.152859 0.734229
B 2.059543 0.102964 -0.491736
N 0.686935 -2.306125 0.492078
B 0.396267 -1.019876 -0.112676
H 1.617706 -2.694893 0.388253
H 2.989883 -0.641975 -0.438171
H 2.097762 1.062281 -1.173073
H 0.631099 0.986738 0.881707
H 1.517936 -0.214996 1.635117
H 0.012501 -3.053056 0.464343
H -0.757486 -0.725750 -0.189540
H 0.972610 -0.823834 -1.241695

