%mem=16GB
%nprocshared=4
#ub3lyp/6-31G(d,p) scf=(maxcycles=1024)

something title 

0 1 
N 1.261789 0.210910 0.744100
B 2.120507 0.154189 -0.424066
N 0.691095 -2.320154 0.435190
B 0.357317 -1.083461 -0.223126
H 1.616678 -2.734848 0.306896
H 3.004547 -0.637553 -0.417818
H 2.138939 1.085236 -1.158344
H 0.667846 1.017399 0.893474
H 1.490656 -0.249886 1.613512
H -0.010074 -3.009047 0.639847
H -0.774661 -0.730520 -0.134041
H 0.860731 -0.877931 -1.326787

