%mem=16GB
%nprocshared=4
#ub3lyp/6-31G(d,p) scf=(maxcycles=1024)

something title 

0 1 
N 1.240905 0.188553 0.738484
B 2.102528 0.138862 -0.442958
N 0.692693 -2.313264 0.458503
B 0.379394 -1.057288 -0.186580
H 1.614225 -2.731240 0.324944
H 3.002480 -0.638777 -0.424780
H 2.128967 1.082268 -1.161339
H 0.648880 1.000236 0.886468
H 1.497327 -0.244442 1.619253
H -0.011017 -3.020613 0.584972
H -0.764201 -0.719165 -0.144538
H 0.893189 -0.860794 -1.303594

