%mem=16GB
%nprocshared=4
#opt freq ub3lyp/6-31G(d,p) scf=(maxcycles=1024)

something title

0 1
N 1.16214 -0.71302 -0.19370
B 1.37786 0.69252 -0.16568
N -1.71756 0.02610 -0.24601
B -0.69410 0.15147 0.71827
H -1.88846 0.72154 -0.95622
H 1.06841 1.34257 -1.12117
H 2.06487 1.15006 0.69706
H 1.54496 -1.34522 0.49564
H 0.71916 -1.18658 -0.97098
H -2.35531 -0.75470 -0.27616
H -0.63380 -0.59169 1.65923
H -0.13669 1.21650 0.81164

