%mem=16GB
%nprocshared=4
#opt freq ub3lyp/6-31G(d,p) scf=(maxcycles=1024)

something title

0 1
N 1.06214 -0.71702 -0.15770
B 1.28986 0.73652 -0.12168
N -1.68556 0.03810 -0.23801
B -0.55410 0.08347 0.63427
H -1.82446 0.67754 -1.00422
H 1.09641 1.34657 -1.13317
H 2.06088 1.15806 0.68906
H 1.54896 -1.33722 0.47564
H 0.77916 -1.17858 -1.01498
H -2.37131 -0.69869 -0.19216
H -0.55780 -0.46369 1.69923
H 0.03931 1.18450 0.66364

