%mem=16GB
%nprocshared=4
#ub3lyp/6-31G(d,p) scf=(maxcycles=1024)

something title 

0 1 
N 2.341222 0.530034 0.343606
B 2.147315 -0.772184 0.761665
N -0.268034 -1.305017 -1.113414
B 0.300154 -1.639176 0.199829
H 0.348640 -0.977766 -1.831103
H 2.758769 -1.213348 1.656121
H 1.688320 -1.614196 -0.004949
H 1.733009 1.015343 -0.315512
H 3.113379 1.093606 0.691295
H -1.078781 -0.727055 -1.133498
H 0.198304 -0.834376 1.106173
H 0.149842 -2.733616 0.593184

