%mem=16GB
%nprocshared=4
#ub3lyp/6-31G(d,p) scf=(maxcycles=1024)

something title 

0 1 
N 2.410597 0.577917 0.437574
B 2.454047 -0.748721 0.754083
N -0.365590 -1.251066 -1.090830
B 0.020596 -1.655253 0.225012
H 0.156103 -1.523612 -1.939271
H 3.153426 -1.179263 1.592055
H 1.701986 -1.384845 0.175689
H 1.752459 0.972391 -0.244950
H 3.130427 1.196804 0.710633
H -0.873551 -0.365012 -1.197497
H -0.336942 -0.983248 1.104094
H 0.228579 -2.833841 0.426805

