%mem=16GB
%nprocshared=4
#ub3lyp/6-31G(d,p) scf=(maxcycles=1024)

something title 

0 1 
N 2.289706 0.528359 0.326587
B 1.895648 -0.700605 0.891188
N -0.190224 -1.264313 -1.115501
B 0.462628 -1.707932 0.085546
H 0.350351 -0.712766 -1.788859
H 2.560916 -1.201714 1.711224
H 1.733476 -1.790254 -0.102312
H 1.703552 1.097087 -0.264951
H 3.158743 0.987562 0.585559
H -1.149499 -1.011512 -1.128849
H 0.609294 -0.795948 1.087276
H 0.007546 -2.605714 0.666490

