%mem=16GB
%nprocshared=4
#ub3lyp/6-31G(d,p) scf=(maxcycles=1024)

something title 

0 1 
N 2.328646 0.525119 0.332435
B 2.089057 -0.766548 0.776805
N -0.249753 -1.305823 -1.115877
B 0.345818 -1.645228 0.184644
H 0.367846 -0.894411 -1.815725
H 2.697807 -1.215421 1.668571
H 1.691987 -1.656410 -0.033608
H 1.727815 1.028667 -0.316863
H 3.116735 1.071631 0.677637
H -1.106908 -0.794419 -1.126661
H 0.296833 -0.815402 1.104279
H 0.126255 -2.709505 0.617762

