   12
 SCF done       0.00000000
N          2.020790796031    0.456575950136    0.513008333163
B          3.199529663517    0.398322595627   -0.196385124175
N          0.238419543721   -2.285267626253    0.030059261816
B         -0.981802424147   -1.650799734937   -0.011362380086
H          1.115264294729   -1.798542468868    0.131855696675
H          4.207297156988    0.273491521893    0.386432998307
H          3.164465007746    0.480157685437   -1.363250582273
H          1.116042109862    0.581943781830    0.089259908410
H          1.972914007898    0.416371395224    1.517562360502
H          0.349469022940   -3.280922360327   -0.062141624864
H         -1.953158520026   -2.284032331511   -0.168001962629
H         -1.023859715959   -0.482963948652    0.081799133353
