   12
 SCF done       6.73158714
N          1.635383127943    0.488903030867    0.834082190681
B          2.414796934132    0.310170744588   -0.298329115791
N          0.586085874255   -2.374056082073    0.302766226377
B         -0.100335374990   -1.414031973822   -0.421724097655
H          1.563919215288   -2.580357929508    0.132397154401
H          3.166590028323   -0.587715039167   -0.341275600786
H          2.335376438359    1.096374582018   -1.172366850447
H          0.913201526203    1.196555319560    0.890421737501
H          1.594951224262   -0.172816820399    1.593744072635
H          0.103340117280   -3.074967586124    0.857400621750
H         -1.216818007969   -1.193418162098   -0.135966269908
H          0.428879840415   -0.870305624043   -1.292314050359
