   12
 SCF done       7.80703439
N          1.574182155552    0.459824278042    0.845325147286
B          2.337705957263    0.306622287400   -0.298891308506
N          0.599380462831   -2.415300154439    0.255230541429
B          0.011491676650   -1.383459824041   -0.465461424328
H          1.575749225821   -2.674464227346    0.151844432443
H          3.055017473569   -0.629241772441   -0.391620905404
H          2.269245486762    1.115026239998   -1.150420413279
H          0.884568483787    1.185982921947    0.943112309912
H          1.526523031316   -0.227044647602    1.576432657838
H          0.081111824874   -2.960111600678    0.985477170683
H         -1.070020631199   -1.055825020881   -0.152292412483
H          0.580415795973   -0.897674020059   -1.349899777189
