   12
 SCF done       8.53794248
N          1.546512876224    0.456462711641    0.822807456448
B          2.308805218428    0.286068491237   -0.319598935590
N          0.595501381351   -2.415027986115    0.283075750596
B          0.042890828145   -1.388373707401   -0.463731351195
H          1.569975240643   -2.698576601173    0.188893347770
H          3.050956011118   -0.609608348685   -0.381792374710
H          2.279884085114    1.131343075826   -1.138926828341
H          0.886637137981    1.196530326451    0.935515351733
H          1.510417536403   -0.218521574010    1.572148398088
H          0.051507334961   -2.947232238107    0.987111048949
H         -1.030346759868   -1.021796101657   -0.172288576937
H          0.612630052901   -0.946933588207   -1.364377268512
