   12
 SCF done      11.41979814
N          1.511606329782    0.422852792755    0.816426773015
B          2.291963595610    0.274619689387   -0.325365133834
N          0.628341183349   -2.353152855123    0.358175008363
B          0.110648908451   -1.324162605118   -0.398756996926
H          1.580857781571   -2.689415780284    0.231560614225
H          3.062441783497   -0.612454067576   -0.375974713295
H          2.236813731828    1.103336545134   -1.172077530643
H          0.817956265903    1.156575339993    0.921403816483
H          1.513224603401   -0.230874830210    1.574258324608
H          0.004602889120   -3.018365544231    0.846281910890
H         -0.982190801043   -0.942225054010   -0.147589657588
H          0.649104671832   -0.962399170918   -1.379506396999
