   12
 SCF done      13.88746073
N          1.405787477723    0.348786194837    0.796547921357
B          2.236584367246    0.244613043867   -0.335286213241
N          0.663382983543   -2.354680009962    0.347487743057
B          0.212482208299   -1.228176447684   -0.363013398602
H          1.595018886971   -2.745607207828    0.186934571069
H          3.036340637851   -0.625018326702   -0.392109543242
H          2.188736330160    1.101178617490   -1.152672538490
H          0.763266567537    1.108582640755    0.913383741162
H          1.482739995796   -0.240529447082    1.617416751527
H          0.012423796044   -2.990097769446    0.826771304702
H         -0.881945555497   -0.839789236986   -0.106464132562
H          0.710553247626   -0.954927591559   -1.390160188537
