   12
 SCF done      12.98961340
N          1.401418028428    0.342967399360    0.800116793428
B          2.239392411541    0.245121941138   -0.320861184752
N          0.642711843083   -2.403810240358    0.265688322861
B          0.200201656477   -1.259010394122   -0.428716764675
H          1.594817526392   -2.757111109551    0.178293071910
H          3.032179687293   -0.615368929286   -0.376388260415
H          2.210218470133    1.121924526232   -1.123754323341
H          0.744209083600    1.101215869836    0.918355550736
H          1.459432466487   -0.265638565661    1.594892740368
H          0.023185544832   -2.899508110175    0.973190260259
H         -0.853198562797   -0.850782298170   -0.136511970037
H          0.730802787831   -0.935665629341   -1.395468218043
