   12
 SCF done      16.27519404
N          1.322303659284    0.279942426868    0.764133070603
B          2.167862075787    0.194983023181   -0.376371122290
N          0.681412221228   -2.343638009172    0.361121717432
B          0.278651909064   -1.166774639650   -0.327079318826
H          1.628474638594   -2.728506621276    0.270880814819
H          3.005616634468   -0.634481620190   -0.397623184843
H          2.160994561695    1.085685823771   -1.153069872931
H          0.733547014451    1.078338065146    0.918775471019
H          1.475749873893   -0.254834400115    1.599613296796
H          0.007139228606   -2.981319757991    0.790414800089
H         -0.812664174707   -0.779703726339   -0.117769181155
H          0.776283300836   -0.925356104533   -1.384190472512
