   12
 SCF done      16.15832779
N          1.246660941434    0.193651804591    0.739092341268
B          2.108668680997    0.143990770970   -0.435990214023
N          0.693515711000   -2.314283479784    0.453706789057
B          0.376983622648   -1.062632982887   -0.197137983085
H          1.613728342148   -2.736432733153    0.315900315230
H          3.004279333922   -0.638320292094   -0.422866797242
H          2.133425201675    1.085123103893   -1.159662676409
H          0.651420290085    1.002163755806    0.887148167317
H          1.494382372047   -0.248648900821    1.616986773365
H         -0.014376682848   -3.015978336975    0.602204796722
H         -0.765159819840   -0.718224016781   -0.138109108750
H          0.881842950132   -0.866074232965   -1.312436384949
