   12
 SCF done       8.50999376
N          1.138357809061    0.105195480768    0.732664227673
B          1.955561458986    0.017708351982   -0.610407338029
N          0.660749661174   -2.334221023675    0.508250438632
B          0.317873148828   -1.016908722130    0.035947970008
H          1.625771875321   -2.605174197055    0.628715525672
H          2.928519823575   -0.675585426373   -0.467971158102
H          2.137149012336    1.089101863644   -1.116404539490
H          0.657406566005    0.977309542560    0.871249649494
H          1.596472297226   -0.119704047406    1.605732028583
H          0.094942788864   -3.153983283517    0.284767490810
H         -0.799704859287   -0.811099113543   -0.277243531064
H          1.112271361211   -0.648304965554   -1.246464745687
