   12
 SCF done       3.79173231
N          1.122859840293    0.073435562745    0.737006319729
B          1.928110081584    0.002256388541   -0.658669238263
N          0.629461223532   -2.348744315262    0.534456540197
B          0.295257712823   -1.030195144699    0.137052838140
H          1.591831734417   -2.581455924164    0.715672638876
H          2.925711766810   -0.639634783055   -0.506011174209
H          2.104627594947    1.101021346719   -1.083702661389
H          0.663874896953    0.962656253572    0.865470935832
H          1.646768174156   -0.120584102643    1.582111630054
H          0.106231146475   -3.160268577978    0.204795241540
H         -0.783976832599   -0.780533484834   -0.254843995475
H          1.194613603808   -0.653618759042   -1.324503056431
