   12
 SCF done      -0.40702350
N          1.097997495418    0.031843139953    0.688056055506
B          1.963826119061    0.033351243568   -0.702725521072
N          0.628502401971   -2.380092037857    0.536634455571
B          0.220605993188   -1.086942834359    0.276345490061
H          1.581036624020   -2.572756309255    0.795358103750
H          2.915857166719   -0.670889288005   -0.514734713248
H          2.241270651051    1.150254515824   -0.968126550945
H          0.613997086206    0.932963816242    0.779715940393
H          1.676866687239   -0.118825130314    1.513134538638
H          0.123929736382   -3.197464092208    0.232476026808
H         -0.867961963565   -0.852037763225   -0.135773515849
H          1.229442945511   -0.445070800564   -1.551524291312
