   12
 SCF done      -3.20196507
N          1.061572733344    0.008079135888    0.650842025685
B          1.978272026791    0.072498182596   -0.735939244169
N          0.623828893731   -2.407023671720    0.583314981454
B          0.175180116994   -1.128191793856    0.334206713159
H          1.574271473201   -2.583821449842    0.868351714020
H          2.860776199992   -0.717467963024   -0.588522053631
H          2.364503914992    1.184348038815   -0.853765562068
H          0.592145510271    0.903293023974    0.732492213444
H          1.690788300199   -0.113196777084    1.435179645672
H          0.141166357058   -3.231968750159    0.278265842911
H         -0.885503171710   -0.913222507647   -0.107763838339
H          1.248368588534   -0.248991007943   -1.647826419840
