   12
 SCF done      -4.21991420
N          1.037218898376   -0.009044861811    0.612498999441
B          1.986800959828    0.100618222601   -0.773873124076
N          0.624167372274   -2.425148617281    0.622712924806
B          0.151399328268   -1.158159040133    0.360004938664
H          1.581381898537   -2.593655763188    0.886856364111
H          2.818365104196   -0.747739955852   -0.658376275845
H          2.450394867683    1.195475505627   -0.740617562279
H          0.568759061513    0.881213922300    0.682671000906
H          1.700477432874   -0.099887274460    1.370539587429
H          0.135980078045   -3.263993072630    0.364159655142
H         -0.919923489973   -0.971709580441   -0.059021978061
H          1.290349431680   -0.083635024934   -1.718718511938
