   12
 SCF done      -4.53265810
N          1.026481864569   -0.015295452536    0.594537836578
B          2.006823722902    0.116186839346   -0.775361103025
N          0.619629431638   -2.433292446219    0.631708092586
B          0.140917089432   -1.166083991627    0.369891942869
H          1.583718588723   -2.601457751256    0.878453906659
H          2.814433319400   -0.754936348144   -0.678572829755
H          2.498224584923    1.190671556324   -0.724338128474
H          0.556174312064    0.874027764952    0.652145492644
H          1.699114887872   -0.094019609498    1.349035006250
H          0.122994447476   -3.277118106952    0.401668119416
H         -0.943963214913   -0.999592570309   -0.029578945293
H          1.300821909214   -0.014755424081   -1.720753372156
