   12
 SCF done       0.17250111
N          1.944512784299    0.460970130463    0.571369066941
B          3.073945770048    0.352881211567   -0.211124375996
N          0.326485593914   -2.277266531743    0.058838464693
B         -0.860980403343   -1.591851389046   -0.080586183415
H          1.232118054429   -1.832034893580    0.091226278702
H          4.089418225731    0.053065691538    0.295401407032
H          2.985726172170    0.543669792260   -1.366558698987
H          1.035014913951    0.698713805007    0.210956297305
H          1.927515442260    0.306418355404    1.565640621196
H          0.386366264217   -3.280851677705    0.112654193472
H         -1.868473747802   -2.189724303656   -0.142455255367
H         -0.846278126475   -0.419655731008   -0.156525797276
