   12
 SCF done      -4.63456562
N          1.010794124810   -0.016615527394    0.566968611546
B          2.022112503712    0.123449087259   -0.784811068641
N          0.633709759001   -2.443391097755    0.637232279883
B          0.135552036380   -1.183795510697    0.379465519573
H          1.603544666360   -2.609501268447    0.851580680218
H          2.785790826686   -0.790217980233   -0.724953094195
H          2.561922389996    1.181792793382   -0.642445233899
H          0.524044192705    0.867670184767    0.610279416459
H          1.670893343922   -0.071784363194    1.332494715694
H          0.118558664492   -3.285687884606    0.457876947989
H         -0.965118230079   -1.032898801367    0.012691838765
H          1.323566665216    0.085314828186   -1.747544595191
