   12
 SCF done      -4.62512431
N          1.014586308546   -0.015103970690    0.570076411212
B          2.024257572217    0.121706852416   -0.782391484635
N          0.629206930184   -2.441012370517    0.637751570176
B          0.134947394672   -1.180863361279    0.380593940876
H          1.598872846689   -2.613251806159    0.848212304442
H          2.800111189331   -0.782535411886   -0.711993345191
H          2.543721928231    1.190842039179   -0.662079966870
H          0.528523874775    0.869870604113    0.616038518887
H          1.673012518188   -0.074624162140    1.335994671212
H          0.117876620955   -3.285236747063    0.442360543610
H         -0.963345582790   -1.019931629954    0.014991363883
H          1.323599342204    0.054474423781   -1.740718509401
