   12
 SCF done      -4.63628469
N          1.011800303417   -0.014611972419    0.568573386042
B          2.023158467098    0.122430678035   -0.783714841541
N          0.633262467019   -2.440451200061    0.635727165178
B          0.134007020744   -1.181213029263    0.381086441632
H          1.603707894601   -2.608442855141    0.846443577448
H          2.789627877055   -0.788802748820   -0.717580348798
H          2.554462551269    1.182247435584   -0.650116234330
H          0.528059908336    0.872206791426    0.612149002519
H          1.667143810416   -0.074252939803    1.335984633542
H          0.122287402316   -3.285116745084    0.447846125680
H         -0.966058798827   -1.028273933873    0.017471625752
H          1.323912039755    0.068614979221   -1.745034514924
