   12
 SCF done      -4.63765854
N          1.013711903296   -0.015328921160    0.569027246827
B          2.023986713628    0.123987939505   -0.784385383521
N          0.631281007155   -2.441244576331    0.636637270571
B          0.135628049598   -1.181421813421    0.379683655353
H          1.600671650545   -2.612080288912    0.849710724475
H          2.793591727484   -0.784567206301   -0.715913533910
H          2.549785801755    1.186087902075   -0.653312591156
H          0.527866020510    0.869818450849    0.614420862151
H          1.670912465197   -0.075665575458    1.335265514030
H          0.118614488068   -3.284833234453    0.448350732111
H         -0.963792626434   -1.025471447177    0.013372890099
H          1.323113742599    0.065053230684   -1.744021368730
