   12
 SCF done       0.44958142
N          1.928334722994    0.490509215538    0.625143303635
B          3.010469916919    0.329149326688   -0.214639689331
N          0.362019155126   -2.280400936666    0.066231000329
B         -0.811437515012   -1.591976908007   -0.150973610707
H          1.275466781515   -1.852707872432    0.040059417393
H          4.010189010643   -0.101945156457    0.222657575851
H          2.899620269807    0.609313059649   -1.349318179194
H          1.034166259301    0.832326106581    0.318342339610
H          1.926223417958    0.263927655228    1.604175222836
H          0.397523495378   -3.270479526528    0.246418752827
H         -1.837315085158   -2.166812094923   -0.113143337045
H         -0.769889485969   -0.436568408869   -0.346116778005
