   12
 SCF done      -4.63676345
N          1.013648394386   -0.015002818597    0.569252098726
B          2.024071144616    0.123653093945   -0.784221354348
N          0.631474076506   -2.441058089541    0.636449111563
B          0.135681727298   -1.181099493219    0.379623477298
H          1.600993752928   -2.611886593535    0.849018421450
H          2.793341918771   -0.785154117309   -0.715642615455
H          2.550053421920    1.185792581504   -0.653755943017
H          0.527712702709    0.870060401088    0.614302792826
H          1.670570120263   -0.075413821371    1.335616634081
H          0.119093208257   -3.284822630625    0.447972877903
H         -0.964032907867   -1.025347161307    0.013806424498
H          1.322763383713    0.064613108768   -1.743585907325
