   12
 SCF done      -4.63684936
N          1.013666100404   -0.015009852482    0.569371021160
B          2.024100147189    0.123538481536   -0.784282494751
N          0.631444594075   -2.441011826328    0.636391354430
B          0.135696291264   -1.180966952624    0.379676048403
H          1.600951853273   -2.611738892655    0.849071625771
H          2.793327265720   -0.785246708472   -0.715383400350
H          2.549917130460    1.185739039134   -0.653861896739
H          0.527779771003    0.870071978648    0.614312322193
H          1.670743335116   -0.075323672592    1.335616151531
H          0.119108352677   -3.284743666063    0.447750425793
H         -0.963925595201   -1.025279278128    0.013671117476
H          1.322561697421    0.064305809827   -1.743496256716
