   12
 SCF done       1.42814845
N          1.832486330258    0.514086319950    0.725627516778
B          2.799222177341    0.286268614093   -0.228521676982
N          0.470205126329   -2.303090530970    0.107228848013
B         -0.608708502601   -1.530370887953   -0.254814812193
H          1.428222834582   -2.009468642399   -0.012927733475
H          3.740457548914   -0.348938711261    0.058356415897
H          2.655847098986    0.713947321914   -1.309291314568
H          0.979746328118    1.014563004049    0.541736689269
H          1.856106127433    0.149815375199    1.659261900056
H          0.380949812116   -3.234327591496    0.487281917939
H         -1.696032820107   -1.948900710185   -0.109025289427
H         -0.413131117769   -0.479249101241   -0.716076443007
