   12
 SCF done       2.27980020
N          1.782473540487    0.509071822184    0.764667232488
B          2.693448657945    0.260323912786   -0.237474448632
N          0.521384559863   -2.307337837857    0.129887633721
B         -0.501129210628   -1.492298972412   -0.292726906813
H          1.498453068365   -2.088041087968   -0.006507269595
H          3.614580465158   -0.419930824020   -0.008214929731
H          2.535744980155    0.743368040860   -1.293567237462
H          0.947448723884    1.060026791119    0.630417433462
H          1.814958046791    0.097215532405    1.677534986738
H          0.364954576512   -3.205630868533    0.566684977119
H         -1.613160800568   -1.824065657050   -0.126865158064
H         -0.233785664565   -0.508366391914   -0.855000294932
