   12
 SCF done       3.08577538
N          1.756726838613    0.516400804977    0.797542378406
B          2.615464143666    0.253100588199   -0.243046935974
N          0.544818458602   -2.315900639120    0.164035029871
B         -0.420931029893   -1.477867812322   -0.347063585537
H          1.536831188451   -2.169744071906    0.016366108457
H          3.514585334395   -0.476675142982   -0.069977341328
H          2.450214342282    0.793751621647   -1.269404250263
H          0.939884650728    1.104628721560    0.696987260075
H          1.790171142676    0.060593870741    1.692134242206
H          0.332822399623   -3.185868503384    0.632451404512
H         -1.546729130049   -1.715503361875   -0.139825719684
H         -0.088487395694   -0.562581615835   -0.981362572440
