   12
 SCF done       4.14303367
N          1.711174682318    0.500655750911    0.815859772778
B          2.546810360006    0.274698079910   -0.255992025956
N          0.571661100028   -2.335856557546    0.195176981292
B         -0.315569334386   -1.449475960958   -0.377916388294
H          1.573402562208   -2.298712804461    0.040224535080
H          3.386502122836   -0.530300671069   -0.164846014970
H          2.413403821460    0.917273252444   -1.226774462026
H          0.920942773756    1.129677073281    0.765803435082
H          1.708283897683   -0.049295095403    1.651722124777
H          0.276191403455   -3.121965995916    0.767494473228
H         -1.452353652807   -1.551986591225   -0.130649700367
H          0.084921206944   -0.660376020168   -1.131266712124
